* SPICE NETLIST
***************************************

.SUBCKT p18_CDNS_672684331922 1 2 3 4
** N=4 EP=4 IP=0 FDC=1
M0 3 4 2 1 PM L=1.8e-07 W=4.4e-07 $X=0 $Y=0 $D=4
.ENDS
***************************************
.SUBCKT p18_CDNS_672684331923 1 2 3 4
** N=4 EP=4 IP=0 FDC=1
M0 4 3 2 1 PM L=1.8e-07 W=8.8e-07 $X=0 $Y=0 $D=4
.ENDS
***************************************
.SUBCKT p18_CDNS_672684331928 1 2 3 4
** N=4 EP=4 IP=0 FDC=1
M0 2 3 4 1 PM L=1.8e-07 W=8.8e-07 $X=0 $Y=0 $D=4
.ENDS
***************************************
.SUBCKT ICV_1 1 2 3 4 5
** N=6 EP=5 IP=8 FDC=2
X0 1 2 4 6 p18_CDNS_672684331923 $T=0 0 0 0 $X=-910 $Y=-430
X1 1 3 5 6 p18_CDNS_672684331928 $T=430 0 0 0 $X=-125 $Y=-430
.ENDS
***************************************
.SUBCKT n18_CDNS_672684331921 1 2 3
** N=3 EP=3 IP=0 FDC=1
M0 3 2 1 1 NM L=1.8e-07 W=4.4e-07 $X=0 $Y=0 $D=0
.ENDS
***************************************
.SUBCKT n18_CDNS_672684331927 1 2 3 4
** N=4 EP=4 IP=0 FDC=1
M0 2 3 4 1 NM L=1.8e-07 W=4.4e-07 $X=0 $Y=0 $D=0
.ENDS
***************************************
.SUBCKT n18_CDNS_672684331926 1 2 3 4
** N=4 EP=4 IP=0 FDC=1
M0 3 4 2 1 NM L=1.8e-07 W=4.4e-07 $X=0 $Y=0 $D=0
.ENDS
***************************************
.SUBCKT ICV_2 1 2 3 4 5 6
** N=7 EP=6 IP=15 FDC=4
X0 1 5 7 n18_CDNS_672684331921 $T=0 0 0 0 $X=-660 $Y=-2020
X1 1 2 6 7 n18_CDNS_672684331927 $T=430 0 0 0 $X=110 $Y=-2020
X2 1 3 4 2 n18_CDNS_672684331926 $T=2370 0 0 0 $X=1710 $Y=-2020
X3 1 1 4 6 n18_CDNS_672684331926 $T=3810 0 0 0 $X=3150 $Y=-2020
.ENDS
***************************************
.SUBCKT ICV_3 1 2 3 4
** N=4 EP=4 IP=8 FDC=2
X0 1 2 1 3 p18_CDNS_672684331922 $T=0 0 0 0 $X=-910 $Y=-430
X1 1 3 1 4 p18_CDNS_672684331922 $T=1440 0 0 0 $X=530 $Y=-430
.ENDS
***************************************
.SUBCKT p18_CDNS_6726843319210 1 2 3 4
** N=4 EP=4 IP=0 FDC=1
M0 3 4 2 1 PM L=1.8e-07 W=8.8e-07 $X=0 $Y=0 $D=4
.ENDS
***************************************
.SUBCKT ICV_4 1 2 3 4 5
** N=5 EP=5 IP=8 FDC=2
X0 1 2 1 4 p18_CDNS_6726843319210 $T=0 0 0 0 $X=-910 $Y=-430
X1 1 2 3 5 p18_CDNS_6726843319210 $T=1440 0 0 0 $X=530 $Y=-430
.ENDS
***************************************
.SUBCKT n18_CDNS_6726843319211 1 2 3
** N=3 EP=3 IP=0 FDC=1
M0 1 3 2 1 NM L=1.8e-07 W=2.2e-07 $X=0 $Y=0 $D=0
.ENDS
***************************************
.SUBCKT n18_CDNS_672684331929 1 2 3 4
** N=4 EP=4 IP=0 FDC=1
M0 2 3 1 4 NM L=1.8e-07 W=4.4e-07 $X=0 $Y=0 $D=0
.ENDS
***************************************
.SUBCKT ICV_5 1 2 3 4 5 6
** N=6 EP=6 IP=8 FDC=2
X0 1 2 3 6 n18_CDNS_672684331926 $T=-1950 0 0 0 $X=-2610 $Y=-2020
X1 1 4 5 6 n18_CDNS_672684331926 $T=0 0 0 0 $X=-660 $Y=-2020
.ENDS
***************************************
.SUBCKT ICV_6 1 2 3 4 5 6 7 8
** N=8 EP=8 IP=10 FDC=3
X0 1 2 3 7 n18_CDNS_672684331926 $T=0 0 0 0 $X=-660 $Y=-2020
X1 1 4 5 6 7 8 ICV_5 $T=-2050 0 0 0 $X=-4660 $Y=-2020
.ENDS
***************************************
.SUBCKT n18_CDNS_672684331925 1 2 3 4
** N=4 EP=4 IP=0 FDC=1
M0 3 4 2 1 NM L=1.8e-07 W=2.2e-07 $X=0 $Y=0 $D=0
.ENDS
***************************************
.SUBCKT ICV_7 1 2 3 4 5 6
** N=6 EP=6 IP=8 FDC=2
X0 1 2 3 6 n18_CDNS_672684331925 $T=0 -1580 1 0 $X=-700 $Y=-2150
X1 1 4 5 6 n18_CDNS_672684331925 $T=0 0 0 0 $X=-700 $Y=-1180
.ENDS
***************************************
.SUBCKT ICV_8 1 2 3 4 5 6 7 8
** N=8 EP=8 IP=12 FDC=4
X0 1 1 2 1 3 8 ICV_7 $T=0 0 0 0 $X=-700 $Y=-2150
X1 1 4 6 5 7 8 ICV_7 $T=2020 0 0 0 $X=1320 $Y=-2150
.ENDS
***************************************
.SUBCKT p18_CDNS_672684331920 1 2 3
** N=3 EP=3 IP=0 FDC=1
M0 2 3 1 1 PM L=1.8e-07 W=4.4e-07 $X=0 $Y=0 $D=4
.ENDS
***************************************
.SUBCKT p18_CDNS_672684331924 1 2 3 4
** N=4 EP=4 IP=0 FDC=1
M0 3 4 2 1 PM L=1.8e-07 W=2.2e-07 $X=0 $Y=0 $D=4
.ENDS
***************************************
.SUBCKT ICV_9 1 2 3 4 5 6 7 8
** N=8 EP=8 IP=14 FDC=4
X0 1 2 8 p18_CDNS_672684331920 $T=0 0 0 0 $X=-910 $Y=-430
X1 1 3 8 p18_CDNS_672684331920 $T=0 2560 1 0 $X=-910 $Y=890
X2 1 4 5 2 p18_CDNS_672684331924 $T=2020 100 0 0 $X=1070 $Y=-430
X3 1 6 7 3 p18_CDNS_672684331924 $T=2020 2460 1 0 $X=1070 $Y=890
.ENDS
***************************************
.SUBCKT ICV_10 1 2 3 4 5
** N=5 EP=5 IP=7 FDC=2
X0 1 2 5 p18_CDNS_672684331920 $T=0 0 0 0 $X=-910 $Y=-430
X1 1 3 4 2 p18_CDNS_672684331924 $T=2020 100 0 0 $X=1070 $Y=-430
.ENDS
***************************************
.SUBCKT ICV_11 1 2 3 4 5 6 7 8
** N=8 EP=8 IP=10 FDC=4
X0 1 2 3 4 7 ICV_10 $T=0 0 0 0 $X=-910 $Y=-430
X1 1 5 3 6 8 ICV_10 $T=4850 0 0 0 $X=3940 $Y=-430
.ENDS
***************************************
.SUBCKT vector_unit_v3 B3 X3 O8 O7 A3 A2 A1 A0 Y0 Y1 Y2 Y3 O6 O5 O4 O3 O2 O1 B2 X2
+ B1 X1 B0 X0 GND VDD O0
** N=489 EP=27 IP=1168 FDC=1178
M0 132 30 O8 GND NM L=1.8e-07 W=4.4e-07 $X=-20790 $Y=-27055 $D=0
M1 GND 141 6 GND NM L=1.8e-07 W=2.2e-07 $X=-20710 $Y=-52855 $D=0
M2 GND 10 3 GND NM L=1.8e-07 W=2.2e-07 $X=-20710 $Y=-49135 $D=0
M3 GND 11 4 GND NM L=1.8e-07 W=2.2e-07 $X=-20710 $Y=-1055 $D=0
M4 GND 142 7 GND NM L=1.8e-07 W=2.2e-07 $X=-20710 $Y=2665 $D=0
M5 GND 143 132 GND NM L=1.8e-07 W=4.4e-07 $X=-20070 $Y=-27055 $D=0
M6 10 15 19 GND NM L=1.8e-07 W=4.4e-07 $X=-19950 $Y=-40005 $D=0
M7 11 16 12 GND NM L=1.8e-07 W=4.4e-07 $X=-19950 $Y=-10405 $D=0
M8 GND 144 131 GND NM L=1.8e-07 W=4.4e-07 $X=-19870 $Y=-23355 $D=0
M9 143 19 GND GND NM L=1.8e-07 W=2.2e-07 $X=-19310 $Y=-26955 $D=0
M10 402 12 GND GND NM L=1.8e-07 W=4.4e-07 $X=-19150 $Y=-23355 $D=0
M11 144 19 402 GND NM L=1.8e-07 W=4.4e-07 $X=-18720 $Y=-23355 $D=0
M12 GND 133 17 GND NM L=1.8e-07 W=2.2e-07 $X=-17850 $Y=-68300 $D=0
M13 GND 134 8 GND NM L=1.8e-07 W=2.2e-07 $X=-17850 $Y=-66500 $D=0
M14 GND 135 59 GND NM L=1.8e-07 W=2.2e-07 $X=-17850 $Y=-61680 $D=0
M15 GND 136 77 GND NM L=1.8e-07 W=2.2e-07 $X=-17850 $Y=-59880 $D=0
M16 GND 137 79 GND NM L=1.8e-07 W=2.2e-07 $X=-17850 $Y=9690 $D=0
M17 GND 138 60 GND NM L=1.8e-07 W=2.2e-07 $X=-17850 $Y=11490 $D=0
M18 GND 139 9 GND NM L=1.8e-07 W=2.2e-07 $X=-17850 $Y=16310 $D=0
M19 GND 140 18 GND NM L=1.8e-07 W=2.2e-07 $X=-17850 $Y=18110 $D=0
M20 GND 8 156 GND NM L=1.8e-07 W=4.4e-07 $X=-16860 $Y=-52955 $D=0
M21 GND 6 157 GND NM L=1.8e-07 W=4.4e-07 $X=-16860 $Y=-49255 $D=0
M22 GND 7 158 GND NM L=1.8e-07 W=4.4e-07 $X=-16860 $Y=-1155 $D=0
M23 GND 9 159 GND NM L=1.8e-07 W=4.4e-07 $X=-16860 $Y=2545 $D=0
M24 173 144 155 GND NM L=1.8e-07 W=4.4e-07 $X=-16780 $Y=-23355 $D=0
M25 403 19 174 GND NM L=1.8e-07 W=4.4e-07 $X=-16530 $Y=-27055 $D=0
M26 163 48 15 GND NM L=1.8e-07 W=4.4e-07 $X=-16180 $Y=-36305 $D=0
M27 164 49 16 GND NM L=1.8e-07 W=4.4e-07 $X=-16180 $Y=-14105 $D=0
M28 GND 12 403 GND NM L=1.8e-07 W=4.4e-07 $X=-16100 $Y=-27055 $D=0
M29 GND 12 173 GND NM L=1.8e-07 W=4.4e-07 $X=-16060 $Y=-23355 $D=0
M30 GND 145 163 GND NM L=1.8e-07 W=4.4e-07 $X=-15460 $Y=-36305 $D=0
M31 GND 146 164 GND NM L=1.8e-07 W=4.4e-07 $X=-15460 $Y=-14105 $D=0
M32 174 143 GND GND NM L=1.8e-07 W=2.2e-07 $X=-15340 $Y=-26955 $D=0
M33 173 19 GND GND NM L=1.8e-07 W=4.4e-07 $X=-15340 $Y=-23355 $D=0
M34 GND 147 160 GND NM L=1.8e-07 W=4.4e-07 $X=-15260 $Y=-40005 $D=0
M35 GND 148 162 GND NM L=1.8e-07 W=4.4e-07 $X=-15260 $Y=-10405 $D=0
M36 145 24 GND GND NM L=1.8e-07 W=2.2e-07 $X=-14700 $Y=-36185 $D=0
M37 146 25 GND GND NM L=1.8e-07 W=2.2e-07 $X=-14700 $Y=-14005 $D=0
M38 404 20 GND GND NM L=1.8e-07 W=4.4e-07 $X=-14540 $Y=-40005 $D=0
M39 405 21 GND GND NM L=1.8e-07 W=4.4e-07 $X=-14540 $Y=-10405 $D=0
M40 33 149 GND GND NM L=1.8e-07 W=2.2e-07 $X=-14160 $Y=-52855 $D=0
M41 20 150 GND GND NM L=1.8e-07 W=2.2e-07 $X=-14160 $Y=-49135 $D=0
M42 21 151 GND GND NM L=1.8e-07 W=2.2e-07 $X=-14160 $Y=-1055 $D=0
M43 34 152 GND GND NM L=1.8e-07 W=2.2e-07 $X=-14160 $Y=2665 $D=0
M44 147 24 404 GND NM L=1.8e-07 W=4.4e-07 $X=-14110 $Y=-40005 $D=0
M45 148 25 405 GND NM L=1.8e-07 W=4.4e-07 $X=-14110 $Y=-10405 $D=0
M46 175 174 GND GND NM L=1.8e-07 W=4.4e-07 $X=-13360 $Y=-27055 $D=0
M47 176 155 GND GND NM L=1.8e-07 W=4.4e-07 $X=-13360 $Y=-23355 $D=0
M48 GND 165 22 GND NM L=1.8e-07 W=2.2e-07 $X=-13000 $Y=-68300 $D=0
M49 GND 166 57 GND NM L=1.8e-07 W=2.2e-07 $X=-13000 $Y=-66500 $D=0
M50 GND 167 86 GND NM L=1.8e-07 W=2.2e-07 $X=-13000 $Y=-61680 $D=0
M51 GND 168 104 GND NM L=1.8e-07 W=2.2e-07 $X=-13000 $Y=-59880 $D=0
M52 GND 169 105 GND NM L=1.8e-07 W=2.2e-07 $X=-13000 $Y=9690 $D=0
M53 GND 170 87 GND NM L=1.8e-07 W=2.2e-07 $X=-13000 $Y=11490 $D=0
M54 GND 171 58 GND NM L=1.8e-07 W=2.2e-07 $X=-13000 $Y=16310 $D=0
M55 GND 172 23 GND NM L=1.8e-07 W=2.2e-07 $X=-13000 $Y=18110 $D=0
M56 O7 30 175 GND NM L=1.8e-07 W=4.4e-07 $X=-12600 $Y=-27055 $D=0
M57 GND 215 27 GND NM L=1.8e-07 W=4.4e-07 $X=-12180 $Y=-52955 $D=0
M58 GND 216 28 GND NM L=1.8e-07 W=4.4e-07 $X=-12180 $Y=2545 $D=0
M59 183 147 179 GND NM L=1.8e-07 W=4.4e-07 $X=-12170 $Y=-40005 $D=0
M60 184 148 180 GND NM L=1.8e-07 W=4.4e-07 $X=-12170 $Y=-10405 $D=0
M61 GND 185 24 GND NM L=1.8e-07 W=2.2e-07 $X=-12140 $Y=-49135 $D=0
M62 GND 186 25 GND NM L=1.8e-07 W=2.2e-07 $X=-12140 $Y=-1055 $D=0
M63 406 24 195 GND NM L=1.8e-07 W=4.4e-07 $X=-11920 $Y=-36305 $D=0
M64 407 25 196 GND NM L=1.8e-07 W=4.4e-07 $X=-11920 $Y=-14105 $D=0
M65 GND 20 406 GND NM L=1.8e-07 W=4.4e-07 $X=-11490 $Y=-36305 $D=0
M66 GND 21 407 GND NM L=1.8e-07 W=4.4e-07 $X=-11490 $Y=-14105 $D=0
M67 GND 20 183 GND NM L=1.8e-07 W=4.4e-07 $X=-11450 $Y=-40005 $D=0
M68 GND 21 184 GND NM L=1.8e-07 W=4.4e-07 $X=-11450 $Y=-10405 $D=0
M69 183 24 GND GND NM L=1.8e-07 W=4.4e-07 $X=-10730 $Y=-40005 $D=0
M70 195 145 GND GND NM L=1.8e-07 W=2.2e-07 $X=-10730 $Y=-36185 $D=0
M71 196 146 GND GND NM L=1.8e-07 W=2.2e-07 $X=-10730 $Y=-14005 $D=0
M72 184 25 GND GND NM L=1.8e-07 W=4.4e-07 $X=-10730 $Y=-10405 $D=0
M73 GND 59 208 GND NM L=1.8e-07 W=4.4e-07 $X=-10240 $Y=-52955 $D=0
M74 GND 60 209 GND NM L=1.8e-07 W=4.4e-07 $X=-10240 $Y=2545 $D=0
M75 408 59 GND GND NM L=1.8e-07 W=4.4e-07 $X=-9520 $Y=-52955 $D=0
M76 409 60 GND GND NM L=1.8e-07 W=4.4e-07 $X=-9520 $Y=2545 $D=0
M77 215 57 408 GND NM L=1.8e-07 W=4.4e-07 $X=-9090 $Y=-52955 $D=0
M78 216 58 409 GND NM L=1.8e-07 W=4.4e-07 $X=-9090 $Y=2545 $D=0
M79 201 179 GND GND NM L=1.8e-07 W=4.4e-07 $X=-8750 $Y=-40005 $D=0
M80 199 195 GND GND NM L=1.8e-07 W=4.4e-07 $X=-8750 $Y=-36305 $D=0
M81 200 196 GND GND NM L=1.8e-07 W=4.4e-07 $X=-8750 $Y=-14105 $D=0
M82 202 180 GND GND NM L=1.8e-07 W=4.4e-07 $X=-8750 $Y=-10405 $D=0
M83 204 65 30 GND NM L=1.8e-07 W=4.4e-07 $X=-8720 $Y=-27055 $D=0
M84 208 46 215 GND NM L=1.8e-07 W=4.4e-07 $X=-8370 $Y=-52955 $D=0
M85 209 47 216 GND NM L=1.8e-07 W=4.4e-07 $X=-8370 $Y=2545 $D=0
M86 GND 27 211 GND NM L=1.8e-07 W=4.4e-07 $X=-8290 $Y=-49255 $D=0
M87 GND 28 212 GND NM L=1.8e-07 W=4.4e-07 $X=-8290 $Y=-1155 $D=0
M88 GND 187 46 GND NM L=1.8e-07 W=2.2e-07 $X=-8150 $Y=-68300 $D=0
M89 GND 188 53 GND NM L=1.8e-07 W=2.2e-07 $X=-8150 $Y=-66500 $D=0
M90 GND 189 31 GND NM L=1.8e-07 W=2.2e-07 $X=-8150 $Y=-61680 $D=0
M91 GND 190 112 GND NM L=1.8e-07 W=2.2e-07 $X=-8150 $Y=-59880 $D=0
M92 GND 191 113 GND NM L=1.8e-07 W=2.2e-07 $X=-8150 $Y=9690 $D=0
M93 GND 192 32 GND NM L=1.8e-07 W=2.2e-07 $X=-8150 $Y=11490 $D=0
M94 GND 193 54 GND NM L=1.8e-07 W=2.2e-07 $X=-8150 $Y=16310 $D=0
M95 GND 194 47 GND NM L=1.8e-07 W=2.2e-07 $X=-8150 $Y=18110 $D=0
M96 GND 197 204 GND NM L=1.8e-07 W=4.4e-07 $X=-8000 $Y=-27055 $D=0
M97 52 48 199 GND NM L=1.8e-07 W=4.4e-07 $X=-7990 $Y=-36305 $D=0
M98 35 49 200 GND NM L=1.8e-07 W=4.4e-07 $X=-7990 $Y=-14105 $D=0
M99 GND 198 203 GND NM L=1.8e-07 W=4.4e-07 $X=-7800 $Y=-23355 $D=0
M100 GND 57 208 GND NM L=1.8e-07 W=4.4e-07 $X=-7650 $Y=-52955 $D=0
M101 GND 58 209 GND NM L=1.8e-07 W=4.4e-07 $X=-7650 $Y=2545 $D=0
M102 197 52 GND GND NM L=1.8e-07 W=2.2e-07 $X=-7240 $Y=-26955 $D=0
M103 410 35 GND GND NM L=1.8e-07 W=4.4e-07 $X=-7080 $Y=-23355 $D=0
M104 411 57 GND GND NM L=1.8e-07 W=4.4e-07 $X=-6930 $Y=-52955 $D=0
M105 412 58 GND GND NM L=1.8e-07 W=4.4e-07 $X=-6930 $Y=2545 $D=0
M106 198 52 410 GND NM L=1.8e-07 W=4.4e-07 $X=-6650 $Y=-23355 $D=0
M107 413 59 411 GND NM L=1.8e-07 W=4.4e-07 $X=-6500 $Y=-52955 $D=0
M108 414 60 412 GND NM L=1.8e-07 W=4.4e-07 $X=-6500 $Y=2545 $D=0
M109 240 46 413 GND NM L=1.8e-07 W=4.4e-07 $X=-6070 $Y=-52955 $D=0
M110 241 47 414 GND NM L=1.8e-07 W=4.4e-07 $X=-6070 $Y=2545 $D=0
M111 55 205 GND GND NM L=1.8e-07 W=2.2e-07 $X=-5590 $Y=-49135 $D=0
M112 56 206 GND GND NM L=1.8e-07 W=2.2e-07 $X=-5590 $Y=-1055 $D=0
M113 234 215 240 GND NM L=1.8e-07 W=4.4e-07 $X=-5350 $Y=-52955 $D=0
M114 235 216 241 GND NM L=1.8e-07 W=4.4e-07 $X=-5350 $Y=2545 $D=0
M115 239 198 229 GND NM L=1.8e-07 W=4.4e-07 $X=-4710 $Y=-23355 $D=0
M116 GND 46 234 GND NM L=1.8e-07 W=4.4e-07 $X=-4630 $Y=-52955 $D=0
M117 GND 47 235 GND NM L=1.8e-07 W=4.4e-07 $X=-4630 $Y=2545 $D=0
M118 415 52 242 GND NM L=1.8e-07 W=4.4e-07 $X=-4460 $Y=-27055 $D=0
M119 237 75 48 GND NM L=1.8e-07 W=4.4e-07 $X=-4110 $Y=-36305 $D=0
M120 238 76 49 GND NM L=1.8e-07 W=4.4e-07 $X=-4110 $Y=-14105 $D=0
M121 GND 35 415 GND NM L=1.8e-07 W=4.4e-07 $X=-4030 $Y=-27055 $D=0
M122 GND 35 239 GND NM L=1.8e-07 W=4.4e-07 $X=-3990 $Y=-23355 $D=0
M123 234 59 GND GND NM L=1.8e-07 W=4.4e-07 $X=-3910 $Y=-52955 $D=0
M124 235 60 GND GND NM L=1.8e-07 W=4.4e-07 $X=-3910 $Y=2545 $D=0
M125 GND 261 63 GND NM L=1.8e-07 W=4.4e-07 $X=-3610 $Y=-49255 $D=0
M126 GND 262 64 GND NM L=1.8e-07 W=4.4e-07 $X=-3610 $Y=-1155 $D=0
M127 GND 225 237 GND NM L=1.8e-07 W=4.4e-07 $X=-3390 $Y=-36305 $D=0
M128 GND 226 238 GND NM L=1.8e-07 W=4.4e-07 $X=-3390 $Y=-14105 $D=0
M129 GND 217 50 GND NM L=1.8e-07 W=2.2e-07 $X=-3300 $Y=-68300 $D=0
M130 GND 218 101 GND NM L=1.8e-07 W=2.2e-07 $X=-3300 $Y=-66500 $D=0
M131 GND 219 115 GND NM L=1.8e-07 W=2.2e-07 $X=-3300 $Y=-61680 $D=0
M132 GND 220 129 GND NM L=1.8e-07 W=2.2e-07 $X=-3300 $Y=-59880 $D=0
M133 GND 221 130 GND NM L=1.8e-07 W=2.2e-07 $X=-3300 $Y=9690 $D=0
M134 GND 222 116 GND NM L=1.8e-07 W=2.2e-07 $X=-3300 $Y=11490 $D=0
M135 GND 223 102 GND NM L=1.8e-07 W=2.2e-07 $X=-3300 $Y=16310 $D=0
M136 GND 224 51 GND NM L=1.8e-07 W=2.2e-07 $X=-3300 $Y=18110 $D=0
M137 242 197 GND GND NM L=1.8e-07 W=2.2e-07 $X=-3270 $Y=-26955 $D=0
M138 239 52 GND GND NM L=1.8e-07 W=4.4e-07 $X=-3270 $Y=-23355 $D=0
M139 GND 57 234 GND NM L=1.8e-07 W=4.4e-07 $X=-3190 $Y=-52955 $D=0
M140 GND 227 230 GND NM L=1.8e-07 W=4.4e-07 $X=-3190 $Y=-40005 $D=0
M141 GND 228 232 GND NM L=1.8e-07 W=4.4e-07 $X=-3190 $Y=-10405 $D=0
M142 GND 58 235 GND NM L=1.8e-07 W=4.4e-07 $X=-3190 $Y=2545 $D=0
M143 225 63 GND GND NM L=1.8e-07 W=2.2e-07 $X=-2630 $Y=-36185 $D=0
M144 226 64 GND GND NM L=1.8e-07 W=2.2e-07 $X=-2630 $Y=-14005 $D=0
M145 66 240 GND GND NM L=1.8e-07 W=4.4e-07 $X=-2470 $Y=-52955 $D=0
M146 416 55 GND GND NM L=1.8e-07 W=4.4e-07 $X=-2470 $Y=-40005 $D=0
M147 417 56 GND GND NM L=1.8e-07 W=4.4e-07 $X=-2470 $Y=-10405 $D=0
M148 67 241 GND GND NM L=1.8e-07 W=4.4e-07 $X=-2470 $Y=2545 $D=0
M149 227 63 416 GND NM L=1.8e-07 W=4.4e-07 $X=-2040 $Y=-40005 $D=0
M150 228 64 417 GND NM L=1.8e-07 W=4.4e-07 $X=-2040 $Y=-10405 $D=0
M151 GND 69 245 GND NM L=1.8e-07 W=4.4e-07 $X=-1670 $Y=-49255 $D=0
M152 GND 70 248 GND NM L=1.8e-07 W=4.4e-07 $X=-1670 $Y=-1155 $D=0
M153 243 242 GND GND NM L=1.8e-07 W=4.4e-07 $X=-1290 $Y=-27055 $D=0
M154 244 229 GND GND NM L=1.8e-07 W=4.4e-07 $X=-1290 $Y=-23355 $D=0
M155 418 69 GND GND NM L=1.8e-07 W=4.4e-07 $X=-950 $Y=-49255 $D=0
M156 419 70 GND GND NM L=1.8e-07 W=4.4e-07 $X=-950 $Y=-1155 $D=0
M157 O6 65 243 GND NM L=1.8e-07 W=4.4e-07 $X=-530 $Y=-27055 $D=0
M158 261 73 418 GND NM L=1.8e-07 W=4.4e-07 $X=-520 $Y=-49255 $D=0
M159 262 74 419 GND NM L=1.8e-07 W=4.4e-07 $X=-520 $Y=-1155 $D=0
M160 GND 253 73 GND NM L=1.8e-07 W=2.2e-07 $X=-490 $Y=-52855 $D=0
M161 GND 254 74 GND NM L=1.8e-07 W=2.2e-07 $X=-490 $Y=2665 $D=0
M162 255 227 249 GND NM L=1.8e-07 W=4.4e-07 $X=-100 $Y=-40005 $D=0
M163 256 228 250 GND NM L=1.8e-07 W=4.4e-07 $X=-100 $Y=-10405 $D=0
M164 420 63 257 GND NM L=1.8e-07 W=4.4e-07 $X=150 $Y=-36305 $D=0
M165 421 64 258 GND NM L=1.8e-07 W=4.4e-07 $X=150 $Y=-14105 $D=0
M166 245 66 261 GND NM L=1.8e-07 W=4.4e-07 $X=200 $Y=-49255 $D=0
M167 248 67 262 GND NM L=1.8e-07 W=4.4e-07 $X=200 $Y=-1155 $D=0
M168 GND 55 420 GND NM L=1.8e-07 W=4.4e-07 $X=580 $Y=-36305 $D=0
M169 GND 56 421 GND NM L=1.8e-07 W=4.4e-07 $X=580 $Y=-14105 $D=0
M170 GND 55 255 GND NM L=1.8e-07 W=4.4e-07 $X=620 $Y=-40005 $D=0
M171 GND 56 256 GND NM L=1.8e-07 W=4.4e-07 $X=620 $Y=-10405 $D=0
M172 GND 73 245 GND NM L=1.8e-07 W=4.4e-07 $X=920 $Y=-49255 $D=0
M173 GND 74 248 GND NM L=1.8e-07 W=4.4e-07 $X=920 $Y=-1155 $D=0
M174 255 63 GND GND NM L=1.8e-07 W=4.4e-07 $X=1340 $Y=-40005 $D=0
M175 257 225 GND GND NM L=1.8e-07 W=2.2e-07 $X=1340 $Y=-36185 $D=0
M176 258 226 GND GND NM L=1.8e-07 W=2.2e-07 $X=1340 $Y=-14005 $D=0
M177 256 64 GND GND NM L=1.8e-07 W=4.4e-07 $X=1340 $Y=-10405 $D=0
M178 422 73 GND GND NM L=1.8e-07 W=4.4e-07 $X=1640 $Y=-49255 $D=0
M179 423 74 GND GND NM L=1.8e-07 W=4.4e-07 $X=1640 $Y=-1155 $D=0
M180 424 69 422 GND NM L=1.8e-07 W=4.4e-07 $X=2070 $Y=-49255 $D=0
M181 425 70 423 GND NM L=1.8e-07 W=4.4e-07 $X=2070 $Y=-1155 $D=0
M182 277 66 424 GND NM L=1.8e-07 W=4.4e-07 $X=2500 $Y=-49255 $D=0
M183 278 67 425 GND NM L=1.8e-07 W=4.4e-07 $X=2500 $Y=-1155 $D=0
M184 273 261 277 GND NM L=1.8e-07 W=4.4e-07 $X=3220 $Y=-49255 $D=0
M185 276 262 278 GND NM L=1.8e-07 W=4.4e-07 $X=3220 $Y=-1155 $D=0
M186 267 249 GND GND NM L=1.8e-07 W=4.4e-07 $X=3320 $Y=-40005 $D=0
M187 265 257 GND GND NM L=1.8e-07 W=4.4e-07 $X=3320 $Y=-36305 $D=0
M188 266 258 GND GND NM L=1.8e-07 W=4.4e-07 $X=3320 $Y=-14105 $D=0
M189 268 250 GND GND NM L=1.8e-07 W=4.4e-07 $X=3320 $Y=-10405 $D=0
M190 270 88 65 GND NM L=1.8e-07 W=4.4e-07 $X=3350 $Y=-27055 $D=0
M191 GND 53 271 GND NM L=1.8e-07 W=4.4e-07 $X=3360 $Y=-52955 $D=0
M192 GND 54 272 GND NM L=1.8e-07 W=4.4e-07 $X=3360 $Y=2545 $D=0
M193 GND 66 273 GND NM L=1.8e-07 W=4.4e-07 $X=3940 $Y=-49255 $D=0
M194 GND 67 276 GND NM L=1.8e-07 W=4.4e-07 $X=3940 $Y=-1155 $D=0
M195 GND 259 270 GND NM L=1.8e-07 W=4.4e-07 $X=4070 $Y=-27055 $D=0
M196 78 75 265 GND NM L=1.8e-07 W=4.4e-07 $X=4080 $Y=-36305 $D=0
M197 68 76 266 GND NM L=1.8e-07 W=4.4e-07 $X=4080 $Y=-14105 $D=0
M198 GND 260 269 GND NM L=1.8e-07 W=4.4e-07 $X=4270 $Y=-23355 $D=0
M199 273 69 GND GND NM L=1.8e-07 W=4.4e-07 $X=4660 $Y=-49255 $D=0
M200 276 70 GND GND NM L=1.8e-07 W=4.4e-07 $X=4660 $Y=-1155 $D=0
M201 259 78 GND GND NM L=1.8e-07 W=2.2e-07 $X=4830 $Y=-26955 $D=0
M202 426 68 GND GND NM L=1.8e-07 W=4.4e-07 $X=4990 $Y=-23355 $D=0
M203 GND 73 273 GND NM L=1.8e-07 W=4.4e-07 $X=5380 $Y=-49255 $D=0
M204 GND 74 276 GND NM L=1.8e-07 W=4.4e-07 $X=5380 $Y=-1155 $D=0
M205 260 78 426 GND NM L=1.8e-07 W=4.4e-07 $X=5420 $Y=-23355 $D=0
M206 93 263 GND GND NM L=1.8e-07 W=2.2e-07 $X=6060 $Y=-52855 $D=0
M207 94 264 GND GND NM L=1.8e-07 W=2.2e-07 $X=6060 $Y=2665 $D=0
M208 80 277 GND GND NM L=1.8e-07 W=4.4e-07 $X=6100 $Y=-49255 $D=0
M209 81 278 GND GND NM L=1.8e-07 W=4.4e-07 $X=6100 $Y=-1155 $D=0
M210 293 260 287 GND NM L=1.8e-07 W=4.4e-07 $X=7360 $Y=-23355 $D=0
M211 427 78 294 GND NM L=1.8e-07 W=4.4e-07 $X=7610 $Y=-27055 $D=0
M212 291 285 75 GND NM L=1.8e-07 W=4.4e-07 $X=7960 $Y=-36305 $D=0
M213 292 286 76 GND NM L=1.8e-07 W=4.4e-07 $X=7960 $Y=-14105 $D=0
M214 GND 317 82 GND NM L=1.8e-07 W=4.4e-07 $X=8040 $Y=-49255 $D=0
M215 GND 68 427 GND NM L=1.8e-07 W=4.4e-07 $X=8040 $Y=-27055 $D=0
M216 GND 318 83 GND NM L=1.8e-07 W=4.4e-07 $X=8040 $Y=-1155 $D=0
M217 GND 295 69 GND NM L=1.8e-07 W=2.2e-07 $X=8080 $Y=-52855 $D=0
M218 GND 68 293 GND NM L=1.8e-07 W=4.4e-07 $X=8080 $Y=-23355 $D=0
M219 GND 296 70 GND NM L=1.8e-07 W=2.2e-07 $X=8080 $Y=2665 $D=0
M220 GND 279 291 GND NM L=1.8e-07 W=4.4e-07 $X=8680 $Y=-36305 $D=0
M221 GND 280 292 GND NM L=1.8e-07 W=4.4e-07 $X=8680 $Y=-14105 $D=0
M222 294 259 GND GND NM L=1.8e-07 W=2.2e-07 $X=8800 $Y=-26955 $D=0
M223 293 78 GND GND NM L=1.8e-07 W=4.4e-07 $X=8800 $Y=-23355 $D=0
M224 GND 281 288 GND NM L=1.8e-07 W=4.4e-07 $X=8880 $Y=-40005 $D=0
M225 GND 282 290 GND NM L=1.8e-07 W=4.4e-07 $X=8880 $Y=-10405 $D=0
M226 279 82 GND GND NM L=1.8e-07 W=2.2e-07 $X=9440 $Y=-36185 $D=0
M227 280 83 GND GND NM L=1.8e-07 W=2.2e-07 $X=9440 $Y=-14005 $D=0
M228 428 80 GND GND NM L=1.8e-07 W=4.4e-07 $X=9600 $Y=-40005 $D=0
M229 429 81 GND GND NM L=1.8e-07 W=4.4e-07 $X=9600 $Y=-10405 $D=0
M230 GND 91 301 GND NM L=1.8e-07 W=4.4e-07 $X=9980 $Y=-49255 $D=0
M231 GND 92 304 GND NM L=1.8e-07 W=4.4e-07 $X=9980 $Y=-1155 $D=0
M232 281 82 428 GND NM L=1.8e-07 W=4.4e-07 $X=10030 $Y=-40005 $D=0
M233 282 83 429 GND NM L=1.8e-07 W=4.4e-07 $X=10030 $Y=-10405 $D=0
M234 430 91 GND GND NM L=1.8e-07 W=4.4e-07 $X=10700 $Y=-49255 $D=0
M235 431 92 GND GND NM L=1.8e-07 W=4.4e-07 $X=10700 $Y=-1155 $D=0
M236 297 294 GND GND NM L=1.8e-07 W=4.4e-07 $X=10780 $Y=-27055 $D=0
M237 298 287 GND GND NM L=1.8e-07 W=4.4e-07 $X=10780 $Y=-23355 $D=0
M238 317 93 430 GND NM L=1.8e-07 W=4.4e-07 $X=11130 $Y=-49255 $D=0
M239 318 94 431 GND NM L=1.8e-07 W=4.4e-07 $X=11130 $Y=-1155 $D=0
M240 O5 88 297 GND NM L=1.8e-07 W=4.4e-07 $X=11540 $Y=-27055 $D=0
M241 301 89 317 GND NM L=1.8e-07 W=4.4e-07 $X=11850 $Y=-49255 $D=0
M242 304 90 318 GND NM L=1.8e-07 W=4.4e-07 $X=11850 $Y=-1155 $D=0
M243 GND 77 307 GND NM L=1.8e-07 W=4.4e-07 $X=11930 $Y=-52955 $D=0
M244 GND 79 308 GND NM L=1.8e-07 W=4.4e-07 $X=11930 $Y=2545 $D=0
M245 311 281 305 GND NM L=1.8e-07 W=4.4e-07 $X=11970 $Y=-40005 $D=0
M246 312 282 306 GND NM L=1.8e-07 W=4.4e-07 $X=11970 $Y=-10405 $D=0
M247 432 82 313 GND NM L=1.8e-07 W=4.4e-07 $X=12220 $Y=-36305 $D=0
M248 433 83 314 GND NM L=1.8e-07 W=4.4e-07 $X=12220 $Y=-14105 $D=0
M249 GND 93 301 GND NM L=1.8e-07 W=4.4e-07 $X=12570 $Y=-49255 $D=0
M250 GND 94 304 GND NM L=1.8e-07 W=4.4e-07 $X=12570 $Y=-1155 $D=0
M251 GND 80 432 GND NM L=1.8e-07 W=4.4e-07 $X=12650 $Y=-36305 $D=0
M252 GND 81 433 GND NM L=1.8e-07 W=4.4e-07 $X=12650 $Y=-14105 $D=0
M253 GND 80 311 GND NM L=1.8e-07 W=4.4e-07 $X=12690 $Y=-40005 $D=0
M254 GND 81 312 GND NM L=1.8e-07 W=4.4e-07 $X=12690 $Y=-10405 $D=0
M255 434 93 GND GND NM L=1.8e-07 W=4.4e-07 $X=13290 $Y=-49255 $D=0
M256 435 94 GND GND NM L=1.8e-07 W=4.4e-07 $X=13290 $Y=-1155 $D=0
M257 311 82 GND GND NM L=1.8e-07 W=4.4e-07 $X=13410 $Y=-40005 $D=0
M258 313 279 GND GND NM L=1.8e-07 W=2.2e-07 $X=13410 $Y=-36185 $D=0
M259 314 280 GND GND NM L=1.8e-07 W=2.2e-07 $X=13410 $Y=-14005 $D=0
M260 312 83 GND GND NM L=1.8e-07 W=4.4e-07 $X=13410 $Y=-10405 $D=0
M261 436 91 434 GND NM L=1.8e-07 W=4.4e-07 $X=13720 $Y=-49255 $D=0
M262 437 92 435 GND NM L=1.8e-07 W=4.4e-07 $X=13720 $Y=-1155 $D=0
M263 329 89 436 GND NM L=1.8e-07 W=4.4e-07 $X=14150 $Y=-49255 $D=0
M264 330 90 437 GND NM L=1.8e-07 W=4.4e-07 $X=14150 $Y=-1155 $D=0
M265 91 299 GND GND NM L=1.8e-07 W=2.2e-07 $X=14630 $Y=-52855 $D=0
M266 92 300 GND GND NM L=1.8e-07 W=2.2e-07 $X=14630 $Y=2665 $D=0
M267 325 317 329 GND NM L=1.8e-07 W=4.4e-07 $X=14870 $Y=-49255 $D=0
M268 328 318 330 GND NM L=1.8e-07 W=4.4e-07 $X=14870 $Y=-1155 $D=0
M269 321 305 GND GND NM L=1.8e-07 W=4.4e-07 $X=15390 $Y=-40005 $D=0
M270 319 313 GND GND NM L=1.8e-07 W=4.4e-07 $X=15390 $Y=-36305 $D=0
M271 320 314 GND GND NM L=1.8e-07 W=4.4e-07 $X=15390 $Y=-14105 $D=0
M272 322 306 GND GND NM L=1.8e-07 W=4.4e-07 $X=15390 $Y=-10405 $D=0
M273 324 109 88 GND NM L=1.8e-07 W=4.4e-07 $X=15420 $Y=-27055 $D=0
M274 GND 89 325 GND NM L=1.8e-07 W=4.4e-07 $X=15590 $Y=-49255 $D=0
M275 GND 90 328 GND NM L=1.8e-07 W=4.4e-07 $X=15590 $Y=-1155 $D=0
M276 GND 315 324 GND NM L=1.8e-07 W=4.4e-07 $X=16140 $Y=-27055 $D=0
M277 98 285 319 GND NM L=1.8e-07 W=4.4e-07 $X=16150 $Y=-36305 $D=0
M278 95 286 320 GND NM L=1.8e-07 W=4.4e-07 $X=16150 $Y=-14105 $D=0
M279 325 91 GND GND NM L=1.8e-07 W=4.4e-07 $X=16310 $Y=-49255 $D=0
M280 328 92 GND GND NM L=1.8e-07 W=4.4e-07 $X=16310 $Y=-1155 $D=0
M281 GND 316 323 GND NM L=1.8e-07 W=4.4e-07 $X=16340 $Y=-23355 $D=0
M282 GND 347 89 GND NM L=1.8e-07 W=4.4e-07 $X=16610 $Y=-52955 $D=0
M283 GND 348 90 GND NM L=1.8e-07 W=4.4e-07 $X=16610 $Y=2545 $D=0
M284 315 98 GND GND NM L=1.8e-07 W=2.2e-07 $X=16900 $Y=-26955 $D=0
M285 GND 93 325 GND NM L=1.8e-07 W=4.4e-07 $X=17030 $Y=-49255 $D=0
M286 GND 94 328 GND NM L=1.8e-07 W=4.4e-07 $X=17030 $Y=-1155 $D=0
M287 438 95 GND GND NM L=1.8e-07 W=4.4e-07 $X=17060 $Y=-23355 $D=0
M288 316 98 438 GND NM L=1.8e-07 W=4.4e-07 $X=17490 $Y=-23355 $D=0
M289 99 329 GND GND NM L=1.8e-07 W=4.4e-07 $X=17750 $Y=-49255 $D=0
M290 100 330 GND GND NM L=1.8e-07 W=4.4e-07 $X=17750 $Y=-1155 $D=0
M291 GND 283 285 GND NM L=1.8e-07 W=2.2e-07 $X=18130 $Y=-39905 $D=0
M292 GND 284 286 GND NM L=1.8e-07 W=2.2e-07 $X=18130 $Y=-10285 $D=0
M293 GND 104 334 GND NM L=1.8e-07 W=4.4e-07 $X=18550 $Y=-52955 $D=0
M294 GND 105 335 GND NM L=1.8e-07 W=4.4e-07 $X=18550 $Y=2545 $D=0
M295 439 104 GND GND NM L=1.8e-07 W=4.4e-07 $X=19270 $Y=-52955 $D=0
M296 440 105 GND GND NM L=1.8e-07 W=4.4e-07 $X=19270 $Y=2545 $D=0
M297 337 316 331 GND NM L=1.8e-07 W=4.4e-07 $X=19430 $Y=-23355 $D=0
M298 441 98 338 GND NM L=1.8e-07 W=4.4e-07 $X=19680 $Y=-27055 $D=0
M299 347 31 439 GND NM L=1.8e-07 W=4.4e-07 $X=19700 $Y=-52955 $D=0
M300 348 32 440 GND NM L=1.8e-07 W=4.4e-07 $X=19700 $Y=2545 $D=0
M301 GND 339 96 GND NM L=1.8e-07 W=2.2e-07 $X=19730 $Y=-49135 $D=0
M302 GND 340 97 GND NM L=1.8e-07 W=2.2e-07 $X=19730 $Y=-1055 $D=0
M303 GND 95 441 GND NM L=1.8e-07 W=4.4e-07 $X=20110 $Y=-27055 $D=0
M304 GND 95 337 GND NM L=1.8e-07 W=4.4e-07 $X=20150 $Y=-23355 $D=0
M305 334 101 347 GND NM L=1.8e-07 W=4.4e-07 $X=20420 $Y=-52955 $D=0
M306 335 102 348 GND NM L=1.8e-07 W=4.4e-07 $X=20420 $Y=2545 $D=0
M307 338 315 GND GND NM L=1.8e-07 W=2.2e-07 $X=20870 $Y=-26955 $D=0
M308 337 98 GND GND NM L=1.8e-07 W=4.4e-07 $X=20870 $Y=-23355 $D=0
M309 GND 31 334 GND NM L=1.8e-07 W=4.4e-07 $X=21140 $Y=-52955 $D=0
M310 GND 32 335 GND NM L=1.8e-07 W=4.4e-07 $X=21140 $Y=2545 $D=0
M311 442 31 GND GND NM L=1.8e-07 W=4.4e-07 $X=21860 $Y=-52955 $D=0
M312 443 32 GND GND NM L=1.8e-07 W=4.4e-07 $X=21860 $Y=2545 $D=0
M313 GND 96 343 GND NM L=1.8e-07 W=4.4e-07 $X=21980 $Y=-40005 $D=0
M314 GND 97 344 GND NM L=1.8e-07 W=4.4e-07 $X=21980 $Y=-10405 $D=0
M315 444 104 442 GND NM L=1.8e-07 W=4.4e-07 $X=22290 $Y=-52955 $D=0
M316 445 105 443 GND NM L=1.8e-07 W=4.4e-07 $X=22290 $Y=2545 $D=0
M317 357 101 444 GND NM L=1.8e-07 W=4.4e-07 $X=22720 $Y=-52955 $D=0
M318 358 102 445 GND NM L=1.8e-07 W=4.4e-07 $X=22720 $Y=2545 $D=0
M319 345 338 GND GND NM L=1.8e-07 W=4.4e-07 $X=22850 $Y=-27055 $D=0
M320 346 331 GND GND NM L=1.8e-07 W=4.4e-07 $X=22850 $Y=-23355 $D=0
M321 354 347 357 GND NM L=1.8e-07 W=4.4e-07 $X=23440 $Y=-52955 $D=0
M322 355 348 358 GND NM L=1.8e-07 W=4.4e-07 $X=23440 $Y=2545 $D=0
M323 GND 110 351 GND NM L=1.8e-07 W=4.4e-07 $X=23580 $Y=-49255 $D=0
M324 GND 111 352 GND NM L=1.8e-07 W=4.4e-07 $X=23580 $Y=-1155 $D=0
M325 O4 109 345 GND NM L=1.8e-07 W=4.4e-07 $X=23610 $Y=-27055 $D=0
M326 GND 101 354 GND NM L=1.8e-07 W=4.4e-07 $X=24160 $Y=-52955 $D=0
M327 GND 102 355 GND NM L=1.8e-07 W=4.4e-07 $X=24160 $Y=2545 $D=0
M328 117 341 GND GND NM L=1.8e-07 W=2.2e-07 $X=24680 $Y=-39905 $D=0
M329 114 342 GND GND NM L=1.8e-07 W=2.2e-07 $X=24680 $Y=-10285 $D=0
M330 354 104 GND GND NM L=1.8e-07 W=4.4e-07 $X=24880 $Y=-52955 $D=0
M331 355 105 GND GND NM L=1.8e-07 W=4.4e-07 $X=24880 $Y=2545 $D=0
M332 GND 31 354 GND NM L=1.8e-07 W=4.4e-07 $X=25600 $Y=-52955 $D=0
M333 GND 32 355 GND NM L=1.8e-07 W=4.4e-07 $X=25600 $Y=2545 $D=0
M334 122 349 GND GND NM L=1.8e-07 W=2.2e-07 $X=26280 $Y=-49135 $D=0
M335 121 350 GND GND NM L=1.8e-07 W=2.2e-07 $X=26280 $Y=-1055 $D=0
M336 107 357 GND GND NM L=1.8e-07 W=4.4e-07 $X=26320 $Y=-52955 $D=0
M337 108 358 GND GND NM L=1.8e-07 W=4.4e-07 $X=26320 $Y=2545 $D=0
M338 362 120 109 GND NM L=1.8e-07 W=4.4e-07 $X=27490 $Y=-27055 $D=0
M339 GND 359 362 GND NM L=1.8e-07 W=4.4e-07 $X=28210 $Y=-27055 $D=0
M340 GND 363 110 GND NM L=1.8e-07 W=2.2e-07 $X=28300 $Y=-52855 $D=0
M341 GND 364 111 GND NM L=1.8e-07 W=2.2e-07 $X=28300 $Y=2665 $D=0
M342 GND 360 361 GND NM L=1.8e-07 W=4.4e-07 $X=28410 $Y=-23355 $D=0
M343 359 117 GND GND NM L=1.8e-07 W=2.2e-07 $X=28970 $Y=-26955 $D=0
M344 446 114 GND GND NM L=1.8e-07 W=4.4e-07 $X=29130 $Y=-23355 $D=0
M345 360 117 446 GND NM L=1.8e-07 W=4.4e-07 $X=29560 $Y=-23355 $D=0
M346 371 360 367 GND NM L=1.8e-07 W=4.4e-07 $X=31500 $Y=-23355 $D=0
M347 447 117 372 GND NM L=1.8e-07 W=4.4e-07 $X=31750 $Y=-27055 $D=0
M348 GND 112 369 GND NM L=1.8e-07 W=4.4e-07 $X=32150 $Y=-52955 $D=0
M349 GND 113 370 GND NM L=1.8e-07 W=4.4e-07 $X=32150 $Y=2545 $D=0
M350 GND 114 447 GND NM L=1.8e-07 W=4.4e-07 $X=32180 $Y=-27055 $D=0
M351 GND 114 371 GND NM L=1.8e-07 W=4.4e-07 $X=32220 $Y=-23355 $D=0
M352 372 359 GND GND NM L=1.8e-07 W=2.2e-07 $X=32940 $Y=-26955 $D=0
M353 371 117 GND GND NM L=1.8e-07 W=4.4e-07 $X=32940 $Y=-23355 $D=0
M354 127 365 GND GND NM L=1.8e-07 W=2.2e-07 $X=34850 $Y=-52855 $D=0
M355 126 366 GND GND NM L=1.8e-07 W=2.2e-07 $X=34850 $Y=2665 $D=0
M356 373 372 GND GND NM L=1.8e-07 W=4.4e-07 $X=34920 $Y=-27055 $D=0
M357 374 367 GND GND NM L=1.8e-07 W=4.4e-07 $X=34920 $Y=-23355 $D=0
M358 O3 120 373 GND NM L=1.8e-07 W=4.4e-07 $X=35680 $Y=-27055 $D=0
M359 378 125 120 GND NM L=1.8e-07 W=4.4e-07 $X=39560 $Y=-27055 $D=0
M360 GND 375 378 GND NM L=1.8e-07 W=4.4e-07 $X=40280 $Y=-27055 $D=0
M361 GND 376 377 GND NM L=1.8e-07 W=4.4e-07 $X=40480 $Y=-23355 $D=0
M362 375 122 GND GND NM L=1.8e-07 W=2.2e-07 $X=41040 $Y=-26955 $D=0
M363 448 121 GND GND NM L=1.8e-07 W=4.4e-07 $X=41200 $Y=-23355 $D=0
M364 376 122 448 GND NM L=1.8e-07 W=4.4e-07 $X=41630 $Y=-23355 $D=0
M365 381 376 379 GND NM L=1.8e-07 W=4.4e-07 $X=43570 $Y=-23355 $D=0
M366 449 122 382 GND NM L=1.8e-07 W=4.4e-07 $X=43820 $Y=-27055 $D=0
M367 GND 121 449 GND NM L=1.8e-07 W=4.4e-07 $X=44250 $Y=-27055 $D=0
M368 GND 121 381 GND NM L=1.8e-07 W=4.4e-07 $X=44290 $Y=-23355 $D=0
M369 382 375 GND GND NM L=1.8e-07 W=2.2e-07 $X=45010 $Y=-26955 $D=0
M370 381 122 GND GND NM L=1.8e-07 W=4.4e-07 $X=45010 $Y=-23355 $D=0
M371 383 382 GND GND NM L=1.8e-07 W=4.4e-07 $X=46990 $Y=-27055 $D=0
M372 384 379 GND GND NM L=1.8e-07 W=4.4e-07 $X=46990 $Y=-23355 $D=0
M373 O2 125 383 GND NM L=1.8e-07 W=4.4e-07 $X=47750 $Y=-27055 $D=0
M374 390 388 125 GND NM L=1.8e-07 W=4.4e-07 $X=51630 $Y=-27055 $D=0
M375 GND 385 390 GND NM L=1.8e-07 W=4.4e-07 $X=52350 $Y=-27055 $D=0
M376 GND 386 389 GND NM L=1.8e-07 W=4.4e-07 $X=52550 $Y=-23355 $D=0
M377 385 127 GND GND NM L=1.8e-07 W=2.2e-07 $X=53110 $Y=-26955 $D=0
M378 450 126 GND GND NM L=1.8e-07 W=4.4e-07 $X=53270 $Y=-23355 $D=0
M379 386 127 450 GND NM L=1.8e-07 W=4.4e-07 $X=53700 $Y=-23355 $D=0