* SPICE NETLIST
***************************************

.SUBCKT p18_CDNS_673420910031 1 2 3 4
** N=4 EP=4 IP=0 FDC=1
M0 3 4 2 1 PM L=1.8e-07 W=4.4e-07 $X=0 $Y=0 $D=4
.ENDS
***************************************
.SUBCKT p18_CDNS_673420910033 1 2 3 4
** N=4 EP=4 IP=0 FDC=1
M0 4 3 2 1 PM L=1.8e-07 W=8.8e-07 $X=0 $Y=0 $D=4
.ENDS
***************************************
.SUBCKT p18_CDNS_673420910038 1 2 3 4
** N=4 EP=4 IP=0 FDC=1
M0 2 3 4 1 PM L=1.8e-07 W=8.8e-07 $X=0 $Y=0 $D=4
.ENDS
***************************************
.SUBCKT ICV_1 1 2 3 4 5
** N=6 EP=5 IP=8 FDC=2
X0 1 2 4 6 p18_CDNS_673420910033 $T=0 0 0 0 $X=-910 $Y=-430
X1 1 3 5 6 p18_CDNS_673420910038 $T=430 0 0 0 $X=-125 $Y=-430
.ENDS
***************************************
.SUBCKT n18_CDNS_673420910032 1 2 3
** N=3 EP=3 IP=0 FDC=1
M0 3 2 1 1 NM L=1.8e-07 W=4.4e-07 $X=0 $Y=0 $D=0
.ENDS
***************************************
.SUBCKT n18_CDNS_673420910037 1 2 3 4
** N=4 EP=4 IP=0 FDC=1
M0 2 3 4 1 NM L=1.8e-07 W=4.4e-07 $X=0 $Y=0 $D=0
.ENDS
***************************************
.SUBCKT n18_CDNS_673420910036 1 2 3 4
** N=4 EP=4 IP=0 FDC=1
M0 3 4 2 1 NM L=1.8e-07 W=4.4e-07 $X=0 $Y=0 $D=0
.ENDS
***************************************
.SUBCKT ICV_2 1 2 3 4 5 6
** N=7 EP=6 IP=15 FDC=4
X0 1 5 7 n18_CDNS_673420910032 $T=0 0 0 0 $X=-660 $Y=-2020
X1 1 2 6 7 n18_CDNS_673420910037 $T=430 0 0 0 $X=110 $Y=-2020
X2 1 3 4 2 n18_CDNS_673420910036 $T=2370 0 0 0 $X=1710 $Y=-2020
X3 1 1 4 6 n18_CDNS_673420910036 $T=3810 0 0 0 $X=3150 $Y=-2020
.ENDS
***************************************
.SUBCKT ICV_3 1 2 3 4
** N=4 EP=4 IP=8 FDC=2
X0 1 2 1 3 p18_CDNS_673420910031 $T=0 0 0 0 $X=-910 $Y=-430
X1 1 3 1 4 p18_CDNS_673420910031 $T=1440 0 0 0 $X=530 $Y=-430
.ENDS
***************************************
.SUBCKT p18_CDNS_6734209100310 1 2 3 4
** N=4 EP=4 IP=0 FDC=1
M0 3 4 2 1 PM L=1.8e-07 W=8.8e-07 $X=0 $Y=0 $D=4
.ENDS
***************************************
.SUBCKT ICV_4 1 2 3 4 5
** N=5 EP=5 IP=8 FDC=2
X0 1 2 1 4 p18_CDNS_6734209100310 $T=0 0 0 0 $X=-910 $Y=-430
X1 1 2 3 5 p18_CDNS_6734209100310 $T=1440 0 0 0 $X=530 $Y=-430
.ENDS
***************************************
.SUBCKT n18_CDNS_6734209100311 1 2 3
** N=3 EP=3 IP=0 FDC=1
M0 1 3 2 1 NM L=1.8e-07 W=2.2e-07 $X=0 $Y=0 $D=0
.ENDS
***************************************
.SUBCKT n18_CDNS_673420910039 1 2 3 4
** N=4 EP=4 IP=0 FDC=1
M0 2 3 1 4 NM L=1.8e-07 W=4.4e-07 $X=0 $Y=0 $D=0
.ENDS
***************************************
.SUBCKT ICV_5 1 2 3 4 5 6
** N=6 EP=6 IP=8 FDC=2
X0 1 2 3 6 n18_CDNS_673420910036 $T=-1950 0 0 0 $X=-2610 $Y=-2020
X1 1 4 5 6 n18_CDNS_673420910036 $T=0 0 0 0 $X=-660 $Y=-2020
.ENDS
***************************************
.SUBCKT ICV_6 1 2 3 4 5 6 7 8
** N=8 EP=8 IP=10 FDC=3
X0 1 2 3 7 n18_CDNS_673420910036 $T=0 0 0 0 $X=-660 $Y=-2020
X1 1 4 5 6 7 8 ICV_5 $T=-2050 0 0 0 $X=-4660 $Y=-2020
.ENDS
***************************************
.SUBCKT n18_CDNS_673420910035 1 2 3 4
** N=4 EP=4 IP=0 FDC=1
M0 3 4 2 1 NM L=1.8e-07 W=2.2e-07 $X=0 $Y=0 $D=0
.ENDS
***************************************
.SUBCKT ICV_7 1 2 3 4 5 6
** N=6 EP=6 IP=8 FDC=2
X0 1 2 3 6 n18_CDNS_673420910035 $T=0 -1580 1 0 $X=-700 $Y=-2150
X1 1 4 5 6 n18_CDNS_673420910035 $T=0 0 0 0 $X=-700 $Y=-1180
.ENDS
***************************************
.SUBCKT ICV_8 1 2 3 4 5 6 7 8
** N=8 EP=8 IP=12 FDC=4
X0 1 1 2 1 3 8 ICV_7 $T=0 0 0 0 $X=-700 $Y=-2150
X1 1 4 6 5 7 8 ICV_7 $T=2020 0 0 0 $X=1320 $Y=-2150
.ENDS
***************************************
.SUBCKT p18_CDNS_673420910030 1 2 3
** N=3 EP=3 IP=0 FDC=1
M0 2 3 1 1 PM L=1.8e-07 W=4.4e-07 $X=0 $Y=0 $D=4
.ENDS
***************************************
.SUBCKT p18_CDNS_673420910034 1 2 3 4
** N=4 EP=4 IP=0 FDC=1
M0 3 4 2 1 PM L=1.8e-07 W=2.2e-07 $X=0 $Y=0 $D=4
.ENDS
***************************************
.SUBCKT ICV_9 1 2 3 4 5 6 7 8
** N=8 EP=8 IP=14 FDC=4
X0 1 2 8 p18_CDNS_673420910030 $T=0 0 0 0 $X=-910 $Y=-430
X1 1 3 8 p18_CDNS_673420910030 $T=0 2560 1 0 $X=-910 $Y=890
X2 1 4 5 2 p18_CDNS_673420910034 $T=2020 100 0 0 $X=1070 $Y=-430
X3 1 6 7 3 p18_CDNS_673420910034 $T=2020 2460 1 0 $X=1070 $Y=890
.ENDS
***************************************
.SUBCKT ICV_10 1 2 3 4 5
** N=5 EP=5 IP=7 FDC=2
X0 1 2 5 p18_CDNS_673420910030 $T=0 0 0 0 $X=-910 $Y=-430
X1 1 3 4 2 p18_CDNS_673420910034 $T=2020 100 0 0 $X=1070 $Y=-430
.ENDS
***************************************
.SUBCKT ICV_11 1 2 3 4 5 6 7 8
** N=8 EP=8 IP=10 FDC=4
X0 1 2 3 4 7 ICV_10 $T=0 0 0 0 $X=-910 $Y=-430
X1 1 5 3 6 8 ICV_10 $T=4850 0 0 0 $X=3940 $Y=-430
.ENDS
***************************************
.SUBCKT VU_reg Q8I Q7I Q6I Q3I Q5I Q2I Q4I Q1I Q0I B3 X3 A3 A2 A1 A0 Y0 Y1 Y2 Y3 RST
+ CLK B2 X2 B1 X1 B0 X0 Q3 Q8 INVQ3 INVQ8 Q2 Q7 INVQ2 INVQ7 Q1 Q6 INVQ1 INVQ6 Q0
+ Q5 INVQ0 INVQ5 Q4 INVQ4 GND VDD
** N=572 EP=47 IP=1168 FDC=1313
M0 135 37 Q8I GND NM L=1.8e-07 W=4.4e-07 $X=30420 $Y=-20465 $D=0
M1 GND 144 14 GND NM L=1.8e-07 W=2.2e-07 $X=30500 $Y=-46265 $D=0
M2 GND 18 12 GND NM L=1.8e-07 W=2.2e-07 $X=30500 $Y=-42545 $D=0
M3 GND 19 13 GND NM L=1.8e-07 W=2.2e-07 $X=30500 $Y=5535 $D=0
M4 GND 145 15 GND NM L=1.8e-07 W=2.2e-07 $X=30500 $Y=9255 $D=0
M5 GND 146 135 GND NM L=1.8e-07 W=4.4e-07 $X=31140 $Y=-20465 $D=0
M6 18 23 27 GND NM L=1.8e-07 W=4.4e-07 $X=31260 $Y=-33415 $D=0
M7 19 24 20 GND NM L=1.8e-07 W=4.4e-07 $X=31260 $Y=-3815 $D=0
M8 GND 147 134 GND NM L=1.8e-07 W=4.4e-07 $X=31340 $Y=-16765 $D=0
M9 146 27 GND GND NM L=1.8e-07 W=2.2e-07 $X=31900 $Y=-20365 $D=0
M10 449 20 GND GND NM L=1.8e-07 W=4.4e-07 $X=32060 $Y=-16765 $D=0
M11 147 27 449 GND NM L=1.8e-07 W=4.4e-07 $X=32490 $Y=-16765 $D=0
M12 GND 136 25 GND NM L=1.8e-07 W=2.2e-07 $X=33360 $Y=-61710 $D=0
M13 GND 137 16 GND NM L=1.8e-07 W=2.2e-07 $X=33360 $Y=-59910 $D=0
M14 GND 138 66 GND NM L=1.8e-07 W=2.2e-07 $X=33360 $Y=-55090 $D=0
M15 GND 139 83 GND NM L=1.8e-07 W=2.2e-07 $X=33360 $Y=-53290 $D=0
M16 GND 140 85 GND NM L=1.8e-07 W=2.2e-07 $X=33360 $Y=16280 $D=0
M17 GND 141 67 GND NM L=1.8e-07 W=2.2e-07 $X=33360 $Y=18080 $D=0
M18 GND 142 17 GND NM L=1.8e-07 W=2.2e-07 $X=33360 $Y=22900 $D=0
M19 GND 143 26 GND NM L=1.8e-07 W=2.2e-07 $X=33360 $Y=24700 $D=0
M20 GND 16 159 GND NM L=1.8e-07 W=4.4e-07 $X=34350 $Y=-46365 $D=0
M21 GND 14 160 GND NM L=1.8e-07 W=4.4e-07 $X=34350 $Y=-42665 $D=0
M22 GND 15 161 GND NM L=1.8e-07 W=4.4e-07 $X=34350 $Y=5435 $D=0
M23 GND 17 162 GND NM L=1.8e-07 W=4.4e-07 $X=34350 $Y=9135 $D=0
M24 176 147 158 GND NM L=1.8e-07 W=4.4e-07 $X=34430 $Y=-16765 $D=0
M25 450 27 177 GND NM L=1.8e-07 W=4.4e-07 $X=34680 $Y=-20465 $D=0
M26 166 55 23 GND NM L=1.8e-07 W=4.4e-07 $X=35030 $Y=-29715 $D=0
M27 167 56 24 GND NM L=1.8e-07 W=4.4e-07 $X=35030 $Y=-7515 $D=0
M28 GND 20 450 GND NM L=1.8e-07 W=4.4e-07 $X=35110 $Y=-20465 $D=0
M29 GND 20 176 GND NM L=1.8e-07 W=4.4e-07 $X=35150 $Y=-16765 $D=0
M30 GND 148 166 GND NM L=1.8e-07 W=4.4e-07 $X=35750 $Y=-29715 $D=0
M31 GND 149 167 GND NM L=1.8e-07 W=4.4e-07 $X=35750 $Y=-7515 $D=0
M32 177 146 GND GND NM L=1.8e-07 W=2.2e-07 $X=35870 $Y=-20365 $D=0
M33 176 27 GND GND NM L=1.8e-07 W=4.4e-07 $X=35870 $Y=-16765 $D=0
M34 GND 150 163 GND NM L=1.8e-07 W=4.4e-07 $X=35950 $Y=-33415 $D=0
M35 GND 151 165 GND NM L=1.8e-07 W=4.4e-07 $X=35950 $Y=-3815 $D=0
M36 148 32 GND GND NM L=1.8e-07 W=2.2e-07 $X=36510 $Y=-29595 $D=0
M37 149 33 GND GND NM L=1.8e-07 W=2.2e-07 $X=36510 $Y=-7415 $D=0
M38 451 28 GND GND NM L=1.8e-07 W=4.4e-07 $X=36670 $Y=-33415 $D=0
M39 452 29 GND GND NM L=1.8e-07 W=4.4e-07 $X=36670 $Y=-3815 $D=0
M40 40 152 GND GND NM L=1.8e-07 W=2.2e-07 $X=37050 $Y=-46265 $D=0
M41 28 153 GND GND NM L=1.8e-07 W=2.2e-07 $X=37050 $Y=-42545 $D=0
M42 29 154 GND GND NM L=1.8e-07 W=2.2e-07 $X=37050 $Y=5535 $D=0
M43 41 155 GND GND NM L=1.8e-07 W=2.2e-07 $X=37050 $Y=9255 $D=0
M44 150 32 451 GND NM L=1.8e-07 W=4.4e-07 $X=37100 $Y=-33415 $D=0
M45 151 33 452 GND NM L=1.8e-07 W=4.4e-07 $X=37100 $Y=-3815 $D=0
M46 178 177 GND GND NM L=1.8e-07 W=4.4e-07 $X=37850 $Y=-20465 $D=0
M47 179 158 GND GND NM L=1.8e-07 W=4.4e-07 $X=37850 $Y=-16765 $D=0
M48 GND 168 30 GND NM L=1.8e-07 W=2.2e-07 $X=38210 $Y=-61710 $D=0
M49 GND 169 64 GND NM L=1.8e-07 W=2.2e-07 $X=38210 $Y=-59910 $D=0
M50 GND 170 91 GND NM L=1.8e-07 W=2.2e-07 $X=38210 $Y=-55090 $D=0
M51 GND 171 108 GND NM L=1.8e-07 W=2.2e-07 $X=38210 $Y=-53290 $D=0
M52 GND 172 109 GND NM L=1.8e-07 W=2.2e-07 $X=38210 $Y=16280 $D=0
M53 GND 173 92 GND NM L=1.8e-07 W=2.2e-07 $X=38210 $Y=18080 $D=0
M54 GND 174 65 GND NM L=1.8e-07 W=2.2e-07 $X=38210 $Y=22900 $D=0
M55 GND 175 31 GND NM L=1.8e-07 W=2.2e-07 $X=38210 $Y=24700 $D=0
M56 Q7I 37 178 GND NM L=1.8e-07 W=4.4e-07 $X=38610 $Y=-20465 $D=0
M57 GND 218 34 GND NM L=1.8e-07 W=4.4e-07 $X=39030 $Y=-46365 $D=0
M58 GND 219 35 GND NM L=1.8e-07 W=4.4e-07 $X=39030 $Y=9135 $D=0
M59 186 150 182 GND NM L=1.8e-07 W=4.4e-07 $X=39040 $Y=-33415 $D=0
M60 187 151 183 GND NM L=1.8e-07 W=4.4e-07 $X=39040 $Y=-3815 $D=0
M61 GND 188 32 GND NM L=1.8e-07 W=2.2e-07 $X=39070 $Y=-42545 $D=0
M62 GND 189 33 GND NM L=1.8e-07 W=2.2e-07 $X=39070 $Y=5535 $D=0
M63 453 32 198 GND NM L=1.8e-07 W=4.4e-07 $X=39290 $Y=-29715 $D=0
M64 454 33 199 GND NM L=1.8e-07 W=4.4e-07 $X=39290 $Y=-7515 $D=0
M65 GND 28 453 GND NM L=1.8e-07 W=4.4e-07 $X=39720 $Y=-29715 $D=0
M66 GND 29 454 GND NM L=1.8e-07 W=4.4e-07 $X=39720 $Y=-7515 $D=0
M67 GND 28 186 GND NM L=1.8e-07 W=4.4e-07 $X=39760 $Y=-33415 $D=0
M68 GND 29 187 GND NM L=1.8e-07 W=4.4e-07 $X=39760 $Y=-3815 $D=0
M69 186 32 GND GND NM L=1.8e-07 W=4.4e-07 $X=40480 $Y=-33415 $D=0
M70 198 148 GND GND NM L=1.8e-07 W=2.2e-07 $X=40480 $Y=-29595 $D=0
M71 199 149 GND GND NM L=1.8e-07 W=2.2e-07 $X=40480 $Y=-7415 $D=0
M72 187 33 GND GND NM L=1.8e-07 W=4.4e-07 $X=40480 $Y=-3815 $D=0
M73 GND 66 211 GND NM L=1.8e-07 W=4.4e-07 $X=40970 $Y=-46365 $D=0
M74 GND 67 212 GND NM L=1.8e-07 W=4.4e-07 $X=40970 $Y=9135 $D=0
M75 455 66 GND GND NM L=1.8e-07 W=4.4e-07 $X=41690 $Y=-46365 $D=0
M76 456 67 GND GND NM L=1.8e-07 W=4.4e-07 $X=41690 $Y=9135 $D=0
M77 218 64 455 GND NM L=1.8e-07 W=4.4e-07 $X=42120 $Y=-46365 $D=0
M78 219 65 456 GND NM L=1.8e-07 W=4.4e-07 $X=42120 $Y=9135 $D=0
M79 204 182 GND GND NM L=1.8e-07 W=4.4e-07 $X=42460 $Y=-33415 $D=0
M80 202 198 GND GND NM L=1.8e-07 W=4.4e-07 $X=42460 $Y=-29715 $D=0
M81 203 199 GND GND NM L=1.8e-07 W=4.4e-07 $X=42460 $Y=-7515 $D=0
M82 205 183 GND GND NM L=1.8e-07 W=4.4e-07 $X=42460 $Y=-3815 $D=0
M83 207 71 37 GND NM L=1.8e-07 W=4.4e-07 $X=42490 $Y=-20465 $D=0
M84 211 53 218 GND NM L=1.8e-07 W=4.4e-07 $X=42840 $Y=-46365 $D=0
M85 212 54 219 GND NM L=1.8e-07 W=4.4e-07 $X=42840 $Y=9135 $D=0
M86 GND 34 214 GND NM L=1.8e-07 W=4.4e-07 $X=42920 $Y=-42665 $D=0
M87 GND 35 215 GND NM L=1.8e-07 W=4.4e-07 $X=42920 $Y=5435 $D=0
M88 GND 190 53 GND NM L=1.8e-07 W=2.2e-07 $X=43060 $Y=-61710 $D=0
M89 GND 191 60 GND NM L=1.8e-07 W=2.2e-07 $X=43060 $Y=-59910 $D=0
M90 GND 192 38 GND NM L=1.8e-07 W=2.2e-07 $X=43060 $Y=-55090 $D=0
M91 GND 193 116 GND NM L=1.8e-07 W=2.2e-07 $X=43060 $Y=-53290 $D=0
M92 GND 194 117 GND NM L=1.8e-07 W=2.2e-07 $X=43060 $Y=16280 $D=0
M93 GND 195 39 GND NM L=1.8e-07 W=2.2e-07 $X=43060 $Y=18080 $D=0
M94 GND 196 61 GND NM L=1.8e-07 W=2.2e-07 $X=43060 $Y=22900 $D=0
M95 GND 197 54 GND NM L=1.8e-07 W=2.2e-07 $X=43060 $Y=24700 $D=0
M96 GND 200 207 GND NM L=1.8e-07 W=4.4e-07 $X=43210 $Y=-20465 $D=0
M97 59 55 202 GND NM L=1.8e-07 W=4.4e-07 $X=43220 $Y=-29715 $D=0
M98 42 56 203 GND NM L=1.8e-07 W=4.4e-07 $X=43220 $Y=-7515 $D=0
M99 GND 201 206 GND NM L=1.8e-07 W=4.4e-07 $X=43410 $Y=-16765 $D=0
M100 GND 64 211 GND NM L=1.8e-07 W=4.4e-07 $X=43560 $Y=-46365 $D=0
M101 GND 65 212 GND NM L=1.8e-07 W=4.4e-07 $X=43560 $Y=9135 $D=0
M102 200 59 GND GND NM L=1.8e-07 W=2.2e-07 $X=43970 $Y=-20365 $D=0
M103 457 42 GND GND NM L=1.8e-07 W=4.4e-07 $X=44130 $Y=-16765 $D=0
M104 458 64 GND GND NM L=1.8e-07 W=4.4e-07 $X=44280 $Y=-46365 $D=0
M105 459 65 GND GND NM L=1.8e-07 W=4.4e-07 $X=44280 $Y=9135 $D=0
M106 201 59 457 GND NM L=1.8e-07 W=4.4e-07 $X=44560 $Y=-16765 $D=0
M107 460 66 458 GND NM L=1.8e-07 W=4.4e-07 $X=44710 $Y=-46365 $D=0
M108 461 67 459 GND NM L=1.8e-07 W=4.4e-07 $X=44710 $Y=9135 $D=0
M109 243 53 460 GND NM L=1.8e-07 W=4.4e-07 $X=45140 $Y=-46365 $D=0
M110 244 54 461 GND NM L=1.8e-07 W=4.4e-07 $X=45140 $Y=9135 $D=0
M111 62 208 GND GND NM L=1.8e-07 W=2.2e-07 $X=45620 $Y=-42545 $D=0
M112 63 209 GND GND NM L=1.8e-07 W=2.2e-07 $X=45620 $Y=5535 $D=0
M113 237 218 243 GND NM L=1.8e-07 W=4.4e-07 $X=45860 $Y=-46365 $D=0
M114 238 219 244 GND NM L=1.8e-07 W=4.4e-07 $X=45860 $Y=9135 $D=0
M115 242 201 232 GND NM L=1.8e-07 W=4.4e-07 $X=46500 $Y=-16765 $D=0
M116 GND 53 237 GND NM L=1.8e-07 W=4.4e-07 $X=46580 $Y=-46365 $D=0
M117 GND 54 238 GND NM L=1.8e-07 W=4.4e-07 $X=46580 $Y=9135 $D=0
M118 462 59 245 GND NM L=1.8e-07 W=4.4e-07 $X=46750 $Y=-20465 $D=0
M119 240 81 55 GND NM L=1.8e-07 W=4.4e-07 $X=47100 $Y=-29715 $D=0
M120 241 82 56 GND NM L=1.8e-07 W=4.4e-07 $X=47100 $Y=-7515 $D=0
M121 GND 42 462 GND NM L=1.8e-07 W=4.4e-07 $X=47180 $Y=-20465 $D=0
M122 GND 42 242 GND NM L=1.8e-07 W=4.4e-07 $X=47220 $Y=-16765 $D=0
M123 237 66 GND GND NM L=1.8e-07 W=4.4e-07 $X=47300 $Y=-46365 $D=0
M124 238 67 GND GND NM L=1.8e-07 W=4.4e-07 $X=47300 $Y=9135 $D=0
M125 GND 264 69 GND NM L=1.8e-07 W=4.4e-07 $X=47600 $Y=-42665 $D=0
M126 GND 265 70 GND NM L=1.8e-07 W=4.4e-07 $X=47600 $Y=5435 $D=0
M127 GND 228 240 GND NM L=1.8e-07 W=4.4e-07 $X=47820 $Y=-29715 $D=0
M128 GND 229 241 GND NM L=1.8e-07 W=4.4e-07 $X=47820 $Y=-7515 $D=0
M129 GND 220 57 GND NM L=1.8e-07 W=2.2e-07 $X=47910 $Y=-61710 $D=0
M130 GND 221 106 GND NM L=1.8e-07 W=2.2e-07 $X=47910 $Y=-59910 $D=0
M131 GND 222 119 GND NM L=1.8e-07 W=2.2e-07 $X=47910 $Y=-55090 $D=0
M132 GND 223 132 GND NM L=1.8e-07 W=2.2e-07 $X=47910 $Y=-53290 $D=0
M133 GND 224 133 GND NM L=1.8e-07 W=2.2e-07 $X=47910 $Y=16280 $D=0
M134 GND 225 120 GND NM L=1.8e-07 W=2.2e-07 $X=47910 $Y=18080 $D=0
M135 GND 226 107 GND NM L=1.8e-07 W=2.2e-07 $X=47910 $Y=22900 $D=0
M136 GND 227 58 GND NM L=1.8e-07 W=2.2e-07 $X=47910 $Y=24700 $D=0
M137 245 200 GND GND NM L=1.8e-07 W=2.2e-07 $X=47940 $Y=-20365 $D=0
M138 242 59 GND GND NM L=1.8e-07 W=4.4e-07 $X=47940 $Y=-16765 $D=0
M139 GND 64 237 GND NM L=1.8e-07 W=4.4e-07 $X=48020 $Y=-46365 $D=0
M140 GND 230 233 GND NM L=1.8e-07 W=4.4e-07 $X=48020 $Y=-33415 $D=0
M141 GND 231 235 GND NM L=1.8e-07 W=4.4e-07 $X=48020 $Y=-3815 $D=0
M142 GND 65 238 GND NM L=1.8e-07 W=4.4e-07 $X=48020 $Y=9135 $D=0
M143 228 69 GND GND NM L=1.8e-07 W=2.2e-07 $X=48580 $Y=-29595 $D=0
M144 229 70 GND GND NM L=1.8e-07 W=2.2e-07 $X=48580 $Y=-7415 $D=0
M145 72 243 GND GND NM L=1.8e-07 W=4.4e-07 $X=48740 $Y=-46365 $D=0
M146 463 62 GND GND NM L=1.8e-07 W=4.4e-07 $X=48740 $Y=-33415 $D=0
M147 464 63 GND GND NM L=1.8e-07 W=4.4e-07 $X=48740 $Y=-3815 $D=0
M148 73 244 GND GND NM L=1.8e-07 W=4.4e-07 $X=48740 $Y=9135 $D=0
M149 230 69 463 GND NM L=1.8e-07 W=4.4e-07 $X=49170 $Y=-33415 $D=0
M150 231 70 464 GND NM L=1.8e-07 W=4.4e-07 $X=49170 $Y=-3815 $D=0
M151 GND 75 248 GND NM L=1.8e-07 W=4.4e-07 $X=49540 $Y=-42665 $D=0
M152 GND 76 251 GND NM L=1.8e-07 W=4.4e-07 $X=49540 $Y=5435 $D=0
M153 246 245 GND GND NM L=1.8e-07 W=4.4e-07 $X=49920 $Y=-20465 $D=0
M154 247 232 GND GND NM L=1.8e-07 W=4.4e-07 $X=49920 $Y=-16765 $D=0
M155 465 75 GND GND NM L=1.8e-07 W=4.4e-07 $X=50260 $Y=-42665 $D=0
M156 466 76 GND GND NM L=1.8e-07 W=4.4e-07 $X=50260 $Y=5435 $D=0
M157 Q6I 71 246 GND NM L=1.8e-07 W=4.4e-07 $X=50680 $Y=-20465 $D=0
M158 264 79 465 GND NM L=1.8e-07 W=4.4e-07 $X=50690 $Y=-42665 $D=0
M159 265 80 466 GND NM L=1.8e-07 W=4.4e-07 $X=50690 $Y=5435 $D=0
M160 GND 256 79 GND NM L=1.8e-07 W=2.2e-07 $X=50720 $Y=-46265 $D=0
M161 GND 257 80 GND NM L=1.8e-07 W=2.2e-07 $X=50720 $Y=9255 $D=0
M162 258 230 252 GND NM L=1.8e-07 W=4.4e-07 $X=51110 $Y=-33415 $D=0
M163 259 231 253 GND NM L=1.8e-07 W=4.4e-07 $X=51110 $Y=-3815 $D=0
M164 467 69 260 GND NM L=1.8e-07 W=4.4e-07 $X=51360 $Y=-29715 $D=0
M165 468 70 261 GND NM L=1.8e-07 W=4.4e-07 $X=51360 $Y=-7515 $D=0
M166 248 72 264 GND NM L=1.8e-07 W=4.4e-07 $X=51410 $Y=-42665 $D=0
M167 251 73 265 GND NM L=1.8e-07 W=4.4e-07 $X=51410 $Y=5435 $D=0
M168 GND 62 467 GND NM L=1.8e-07 W=4.4e-07 $X=51790 $Y=-29715 $D=0
M169 GND 63 468 GND NM L=1.8e-07 W=4.4e-07 $X=51790 $Y=-7515 $D=0
M170 GND 62 258 GND NM L=1.8e-07 W=4.4e-07 $X=51830 $Y=-33415 $D=0
M171 GND 63 259 GND NM L=1.8e-07 W=4.4e-07 $X=51830 $Y=-3815 $D=0
M172 GND 79 248 GND NM L=1.8e-07 W=4.4e-07 $X=52130 $Y=-42665 $D=0
M173 GND 80 251 GND NM L=1.8e-07 W=4.4e-07 $X=52130 $Y=5435 $D=0
M174 258 69 GND GND NM L=1.8e-07 W=4.4e-07 $X=52550 $Y=-33415 $D=0
M175 260 228 GND GND NM L=1.8e-07 W=2.2e-07 $X=52550 $Y=-29595 $D=0
M176 261 229 GND GND NM L=1.8e-07 W=2.2e-07 $X=52550 $Y=-7415 $D=0
M177 259 70 GND GND NM L=1.8e-07 W=4.4e-07 $X=52550 $Y=-3815 $D=0
M178 469 79 GND GND NM L=1.8e-07 W=4.4e-07 $X=52850 $Y=-42665 $D=0
M179 470 80 GND GND NM L=1.8e-07 W=4.4e-07 $X=52850 $Y=5435 $D=0
M180 471 75 469 GND NM L=1.8e-07 W=4.4e-07 $X=53280 $Y=-42665 $D=0
M181 472 76 470 GND NM L=1.8e-07 W=4.4e-07 $X=53280 $Y=5435 $D=0
M182 280 72 471 GND NM L=1.8e-07 W=4.4e-07 $X=53710 $Y=-42665 $D=0
M183 281 73 472 GND NM L=1.8e-07 W=4.4e-07 $X=53710 $Y=5435 $D=0
M184 276 264 280 GND NM L=1.8e-07 W=4.4e-07 $X=54430 $Y=-42665 $D=0
M185 279 265 281 GND NM L=1.8e-07 W=4.4e-07 $X=54430 $Y=5435 $D=0
M186 270 252 GND GND NM L=1.8e-07 W=4.4e-07 $X=54530 $Y=-33415 $D=0
M187 268 260 GND GND NM L=1.8e-07 W=4.4e-07 $X=54530 $Y=-29715 $D=0
M188 269 261 GND GND NM L=1.8e-07 W=4.4e-07 $X=54530 $Y=-7515 $D=0
M189 271 253 GND GND NM L=1.8e-07 W=4.4e-07 $X=54530 $Y=-3815 $D=0
M190 273 93 71 GND NM L=1.8e-07 W=4.4e-07 $X=54560 $Y=-20465 $D=0
M191 GND 60 274 GND NM L=1.8e-07 W=4.4e-07 $X=54570 $Y=-46365 $D=0
M192 GND 61 275 GND NM L=1.8e-07 W=4.4e-07 $X=54570 $Y=9135 $D=0
M193 GND 72 276 GND NM L=1.8e-07 W=4.4e-07 $X=55150 $Y=-42665 $D=0
M194 GND 73 279 GND NM L=1.8e-07 W=4.4e-07 $X=55150 $Y=5435 $D=0
M195 GND 262 273 GND NM L=1.8e-07 W=4.4e-07 $X=55280 $Y=-20465 $D=0
M196 84 81 268 GND NM L=1.8e-07 W=4.4e-07 $X=55290 $Y=-29715 $D=0
M197 74 82 269 GND NM L=1.8e-07 W=4.4e-07 $X=55290 $Y=-7515 $D=0
M198 GND 263 272 GND NM L=1.8e-07 W=4.4e-07 $X=55480 $Y=-16765 $D=0
M199 276 75 GND GND NM L=1.8e-07 W=4.4e-07 $X=55870 $Y=-42665 $D=0
M200 279 76 GND GND NM L=1.8e-07 W=4.4e-07 $X=55870 $Y=5435 $D=0
M201 262 84 GND GND NM L=1.8e-07 W=2.2e-07 $X=56040 $Y=-20365 $D=0
M202 473 74 GND GND NM L=1.8e-07 W=4.4e-07 $X=56200 $Y=-16765 $D=0
M203 GND 79 276 GND NM L=1.8e-07 W=4.4e-07 $X=56590 $Y=-42665 $D=0
M204 GND 80 279 GND NM L=1.8e-07 W=4.4e-07 $X=56590 $Y=5435 $D=0
M205 263 84 473 GND NM L=1.8e-07 W=4.4e-07 $X=56630 $Y=-16765 $D=0
M206 98 266 GND GND NM L=1.8e-07 W=2.2e-07 $X=57270 $Y=-46265 $D=0
M207 99 267 GND GND NM L=1.8e-07 W=2.2e-07 $X=57270 $Y=9255 $D=0
M208 86 280 GND GND NM L=1.8e-07 W=4.4e-07 $X=57310 $Y=-42665 $D=0
M209 87 281 GND GND NM L=1.8e-07 W=4.4e-07 $X=57310 $Y=5435 $D=0
M210 296 263 290 GND NM L=1.8e-07 W=4.4e-07 $X=58570 $Y=-16765 $D=0
M211 474 84 297 GND NM L=1.8e-07 W=4.4e-07 $X=58820 $Y=-20465 $D=0
M212 294 288 81 GND NM L=1.8e-07 W=4.4e-07 $X=59170 $Y=-29715 $D=0
M213 295 289 82 GND NM L=1.8e-07 W=4.4e-07 $X=59170 $Y=-7515 $D=0
M214 GND 320 88 GND NM L=1.8e-07 W=4.4e-07 $X=59250 $Y=-42665 $D=0
M215 GND 74 474 GND NM L=1.8e-07 W=4.4e-07 $X=59250 $Y=-20465 $D=0
M216 GND 321 89 GND NM L=1.8e-07 W=4.4e-07 $X=59250 $Y=5435 $D=0
M217 GND 298 75 GND NM L=1.8e-07 W=2.2e-07 $X=59290 $Y=-46265 $D=0
M218 GND 74 296 GND NM L=1.8e-07 W=4.4e-07 $X=59290 $Y=-16765 $D=0
M219 GND 299 76 GND NM L=1.8e-07 W=2.2e-07 $X=59290 $Y=9255 $D=0
M220 GND 282 294 GND NM L=1.8e-07 W=4.4e-07 $X=59890 $Y=-29715 $D=0
M221 GND 283 295 GND NM L=1.8e-07 W=4.4e-07 $X=59890 $Y=-7515 $D=0
M222 297 262 GND GND NM L=1.8e-07 W=2.2e-07 $X=60010 $Y=-20365 $D=0
M223 296 84 GND GND NM L=1.8e-07 W=4.4e-07 $X=60010 $Y=-16765 $D=0
M224 GND 284 291 GND NM L=1.8e-07 W=4.4e-07 $X=60090 $Y=-33415 $D=0
M225 GND 285 293 GND NM L=1.8e-07 W=4.4e-07 $X=60090 $Y=-3815 $D=0
M226 282 88 GND GND NM L=1.8e-07 W=2.2e-07 $X=60650 $Y=-29595 $D=0
M227 283 89 GND GND NM L=1.8e-07 W=2.2e-07 $X=60650 $Y=-7415 $D=0
M228 475 86 GND GND NM L=1.8e-07 W=4.4e-07 $X=60810 $Y=-33415 $D=0
M229 476 87 GND GND NM L=1.8e-07 W=4.4e-07 $X=60810 $Y=-3815 $D=0
M230 GND 96 304 GND NM L=1.8e-07 W=4.4e-07 $X=61190 $Y=-42665 $D=0
M231 GND 97 307 GND NM L=1.8e-07 W=4.4e-07 $X=61190 $Y=5435 $D=0
M232 284 88 475 GND NM L=1.8e-07 W=4.4e-07 $X=61240 $Y=-33415 $D=0
M233 285 89 476 GND NM L=1.8e-07 W=4.4e-07 $X=61240 $Y=-3815 $D=0
M234 477 96 GND GND NM L=1.8e-07 W=4.4e-07 $X=61910 $Y=-42665 $D=0
M235 478 97 GND GND NM L=1.8e-07 W=4.4e-07 $X=61910 $Y=5435 $D=0
M236 300 297 GND GND NM L=1.8e-07 W=4.4e-07 $X=61990 $Y=-20465 $D=0
M237 301 290 GND GND NM L=1.8e-07 W=4.4e-07 $X=61990 $Y=-16765 $D=0
M238 320 98 477 GND NM L=1.8e-07 W=4.4e-07 $X=62340 $Y=-42665 $D=0
M239 321 99 478 GND NM L=1.8e-07 W=4.4e-07 $X=62340 $Y=5435 $D=0
M240 Q5I 93 300 GND NM L=1.8e-07 W=4.4e-07 $X=62750 $Y=-20465 $D=0
M241 304 94 320 GND NM L=1.8e-07 W=4.4e-07 $X=63060 $Y=-42665 $D=0
M242 307 95 321 GND NM L=1.8e-07 W=4.4e-07 $X=63060 $Y=5435 $D=0
M243 GND 83 310 GND NM L=1.8e-07 W=4.4e-07 $X=63140 $Y=-46365 $D=0
M244 GND 85 311 GND NM L=1.8e-07 W=4.4e-07 $X=63140 $Y=9135 $D=0
M245 314 284 308 GND NM L=1.8e-07 W=4.4e-07 $X=63180 $Y=-33415 $D=0
M246 315 285 309 GND NM L=1.8e-07 W=4.4e-07 $X=63180 $Y=-3815 $D=0
M247 479 88 316 GND NM L=1.8e-07 W=4.4e-07 $X=63430 $Y=-29715 $D=0
M248 480 89 317 GND NM L=1.8e-07 W=4.4e-07 $X=63430 $Y=-7515 $D=0
M249 GND 98 304 GND NM L=1.8e-07 W=4.4e-07 $X=63780 $Y=-42665 $D=0
M250 GND 99 307 GND NM L=1.8e-07 W=4.4e-07 $X=63780 $Y=5435 $D=0
M251 GND 86 479 GND NM L=1.8e-07 W=4.4e-07 $X=63860 $Y=-29715 $D=0
M252 GND 87 480 GND NM L=1.8e-07 W=4.4e-07 $X=63860 $Y=-7515 $D=0
M253 GND 86 314 GND NM L=1.8e-07 W=4.4e-07 $X=63900 $Y=-33415 $D=0
M254 GND 87 315 GND NM L=1.8e-07 W=4.4e-07 $X=63900 $Y=-3815 $D=0
M255 481 98 GND GND NM L=1.8e-07 W=4.4e-07 $X=64500 $Y=-42665 $D=0
M256 482 99 GND GND NM L=1.8e-07 W=4.4e-07 $X=64500 $Y=5435 $D=0
M257 314 88 GND GND NM L=1.8e-07 W=4.4e-07 $X=64620 $Y=-33415 $D=0
M258 316 282 GND GND NM L=1.8e-07 W=2.2e-07 $X=64620 $Y=-29595 $D=0
M259 317 283 GND GND NM L=1.8e-07 W=2.2e-07 $X=64620 $Y=-7415 $D=0
M260 315 89 GND GND NM L=1.8e-07 W=4.4e-07 $X=64620 $Y=-3815 $D=0
M261 483 96 481 GND NM L=1.8e-07 W=4.4e-07 $X=64930 $Y=-42665 $D=0
M262 484 97 482 GND NM L=1.8e-07 W=4.4e-07 $X=64930 $Y=5435 $D=0
M263 332 94 483 GND NM L=1.8e-07 W=4.4e-07 $X=65360 $Y=-42665 $D=0
M264 333 95 484 GND NM L=1.8e-07 W=4.4e-07 $X=65360 $Y=5435 $D=0
M265 96 302 GND GND NM L=1.8e-07 W=2.2e-07 $X=65840 $Y=-46265 $D=0
M266 97 303 GND GND NM L=1.8e-07 W=2.2e-07 $X=65840 $Y=9255 $D=0
M267 328 320 332 GND NM L=1.8e-07 W=4.4e-07 $X=66080 $Y=-42665 $D=0
M268 331 321 333 GND NM L=1.8e-07 W=4.4e-07 $X=66080 $Y=5435 $D=0
M269 324 308 GND GND NM L=1.8e-07 W=4.4e-07 $X=66600 $Y=-33415 $D=0
M270 322 316 GND GND NM L=1.8e-07 W=4.4e-07 $X=66600 $Y=-29715 $D=0
M271 323 317 GND GND NM L=1.8e-07 W=4.4e-07 $X=66600 $Y=-7515 $D=0
M272 325 309 GND GND NM L=1.8e-07 W=4.4e-07 $X=66600 $Y=-3815 $D=0
M273 327 113 93 GND NM L=1.8e-07 W=4.4e-07 $X=66630 $Y=-20465 $D=0
M274 GND 94 328 GND NM L=1.8e-07 W=4.4e-07 $X=66800 $Y=-42665 $D=0
M275 GND 95 331 GND NM L=1.8e-07 W=4.4e-07 $X=66800 $Y=5435 $D=0
M276 GND 318 327 GND NM L=1.8e-07 W=4.4e-07 $X=67350 $Y=-20465 $D=0
M277 103 288 322 GND NM L=1.8e-07 W=4.4e-07 $X=67360 $Y=-29715 $D=0
M278 100 289 323 GND NM L=1.8e-07 W=4.4e-07 $X=67360 $Y=-7515 $D=0
M279 328 96 GND GND NM L=1.8e-07 W=4.4e-07 $X=67520 $Y=-42665 $D=0
M280 331 97 GND GND NM L=1.8e-07 W=4.4e-07 $X=67520 $Y=5435 $D=0
M281 GND 319 326 GND NM L=1.8e-07 W=4.4e-07 $X=67550 $Y=-16765 $D=0
M282 GND 356 94 GND NM L=1.8e-07 W=4.4e-07 $X=67820 $Y=-46365 $D=0
M283 GND 357 95 GND NM L=1.8e-07 W=4.4e-07 $X=67820 $Y=9135 $D=0
M284 318 103 GND GND NM L=1.8e-07 W=2.2e-07 $X=68110 $Y=-20365 $D=0
M285 GND 98 328 GND NM L=1.8e-07 W=4.4e-07 $X=68240 $Y=-42665 $D=0
M286 GND 99 331 GND NM L=1.8e-07 W=4.4e-07 $X=68240 $Y=5435 $D=0
M287 485 100 GND GND NM L=1.8e-07 W=4.4e-07 $X=68270 $Y=-16765 $D=0
M288 319 103 485 GND NM L=1.8e-07 W=4.4e-07 $X=68700 $Y=-16765 $D=0
M289 104 332 GND GND NM L=1.8e-07 W=4.4e-07 $X=68960 $Y=-42665 $D=0
M290 105 333 GND GND NM L=1.8e-07 W=4.4e-07 $X=68960 $Y=5435 $D=0
M291 GND 286 288 GND NM L=1.8e-07 W=2.2e-07 $X=69340 $Y=-33315 $D=0
M292 342 Q3I GND GND NM L=1.8e-07 W=2.2e-07 $X=69340 $Y=-29595 $D=0
M293 343 Q8I GND GND NM L=1.8e-07 W=2.2e-07 $X=69340 $Y=-7415 $D=0
M294 GND 287 289 GND NM L=1.8e-07 W=2.2e-07 $X=69340 $Y=-3695 $D=0
M295 GND 108 339 GND NM L=1.8e-07 W=4.4e-07 $X=69760 $Y=-46365 $D=0
M296 GND 109 340 GND NM L=1.8e-07 W=4.4e-07 $X=69760 $Y=9135 $D=0
M297 486 108 GND GND NM L=1.8e-07 W=4.4e-07 $X=70480 $Y=-46365 $D=0
M298 487 109 GND GND NM L=1.8e-07 W=4.4e-07 $X=70480 $Y=9135 $D=0
M299 344 319 336 GND NM L=1.8e-07 W=4.4e-07 $X=70640 $Y=-16765 $D=0
M300 488 103 345 GND NM L=1.8e-07 W=4.4e-07 $X=70890 $Y=-20465 $D=0
M301 356 38 486 GND NM L=1.8e-07 W=4.4e-07 $X=70910 $Y=-46365 $D=0
M302 357 39 487 GND NM L=1.8e-07 W=4.4e-07 $X=70910 $Y=9135 $D=0
M303 GND 346 101 GND NM L=1.8e-07 W=2.2e-07 $X=70940 $Y=-42545 $D=0
M304 GND 347 102 GND NM L=1.8e-07 W=2.2e-07 $X=70940 $Y=5535 $D=0
M305 334 RST GND GND NM L=1.8e-07 W=4.4e-07 $X=71320 $Y=-29715 $D=0
M306 GND 100 488 GND NM L=1.8e-07 W=4.4e-07 $X=71320 $Y=-20465 $D=0
M307 335 RST GND GND NM L=1.8e-07 W=4.4e-07 $X=71320 $Y=-7515 $D=0
M308 GND 100 344 GND NM L=1.8e-07 W=4.4e-07 $X=71360 $Y=-16765 $D=0
M309 339 106 356 GND NM L=1.8e-07 W=4.4e-07 $X=71630 $Y=-46365 $D=0
M310 340 107 357 GND NM L=1.8e-07 W=4.4e-07 $X=71630 $Y=9135 $D=0
M311 GND 342 334 GND NM L=1.8e-07 W=4.4e-07 $X=72040 $Y=-29715 $D=0
M312 GND 343 335 GND NM L=1.8e-07 W=4.4e-07 $X=72040 $Y=-7515 $D=0
M313 345 318 GND GND NM L=1.8e-07 W=2.2e-07 $X=72080 $Y=-20365 $D=0
M314 344 103 GND GND NM L=1.8e-07 W=4.4e-07 $X=72080 $Y=-16765 $D=0
M315 GND 38 339 GND NM L=1.8e-07 W=4.4e-07 $X=72350 $Y=-46365 $D=0
M316 GND 39 340 GND NM L=1.8e-07 W=4.4e-07 $X=72350 $Y=9135 $D=0
M317 489 334 GND GND NM L=1.8e-07 W=4.4e-07 $X=72760 $Y=-29715 $D=0
M318 490 335 GND GND NM L=1.8e-07 W=4.4e-07 $X=72760 $Y=-7515 $D=0
M319 491 38 GND GND NM L=1.8e-07 W=4.4e-07 $X=73070 $Y=-46365 $D=0
M320 492 39 GND GND NM L=1.8e-07 W=4.4e-07 $X=73070 $Y=9135 $D=0
M321 GND 101 352 GND NM L=1.8e-07 W=4.4e-07 $X=73190 $Y=-33415 $D=0
M322 350 CLK 489 GND NM L=1.8e-07 W=4.4e-07 $X=73190 $Y=-29715 $D=0
M323 351 CLK 490 GND NM L=1.8e-07 W=4.4e-07 $X=73190 $Y=-7515 $D=0
M324 GND 102 353 GND NM L=1.8e-07 W=4.4e-07 $X=73190 $Y=-3815 $D=0
M325 493 108 491 GND NM L=1.8e-07 W=4.4e-07 $X=73500 $Y=-46365 $D=0
M326 494 109 492 GND NM L=1.8e-07 W=4.4e-07 $X=73500 $Y=9135 $D=0
M327 370 106 493 GND NM L=1.8e-07 W=4.4e-07 $X=73930 $Y=-46365 $D=0
M328 371 107 494 GND NM L=1.8e-07 W=4.4e-07 $X=73930 $Y=9135 $D=0
M329 354 345 GND GND NM L=1.8e-07 W=4.4e-07 $X=74060 $Y=-20465 $D=0
M330 355 336 GND GND NM L=1.8e-07 W=4.4e-07 $X=74060 $Y=-16765 $D=0
M331 365 356 370 GND NM L=1.8e-07 W=4.4e-07 $X=74650 $Y=-46365 $D=0
M332 366 357 371 GND NM L=1.8e-07 W=4.4e-07 $X=74650 $Y=9135 $D=0
M333 GND 114 362 GND NM L=1.8e-07 W=4.4e-07 $X=74790 $Y=-42665 $D=0
M334 GND 115 363 GND NM L=1.8e-07 W=4.4e-07 $X=74790 $Y=5435 $D=0
M335 Q4I 113 354 GND NM L=1.8e-07 W=4.4e-07 $X=74820 $Y=-20465 $D=0
M336 495 CLK Q3 GND NM L=1.8e-07 W=4.4e-07 $X=75130 $Y=-29715 $D=0
M337 496 CLK Q8 GND NM L=1.8e-07 W=4.4e-07 $X=75130 $Y=-7515 $D=0
M338 GND 106 365 GND NM L=1.8e-07 W=4.4e-07 $X=75370 $Y=-46365 $D=0
M339 GND 107 366 GND NM L=1.8e-07 W=4.4e-07 $X=75370 $Y=9135 $D=0
M340 GND 350 495 GND NM L=1.8e-07 W=4.4e-07 $X=75560 $Y=-29715 $D=0
M341 GND 351 496 GND NM L=1.8e-07 W=4.4e-07 $X=75560 $Y=-7515 $D=0
M342 121 348 GND GND NM L=1.8e-07 W=2.2e-07 $X=75890 $Y=-33315 $D=0
M343 118 349 GND GND NM L=1.8e-07 W=2.2e-07 $X=75890 $Y=-3695 $D=0
M344 365 108 GND GND NM L=1.8e-07 W=4.4e-07 $X=76090 $Y=-46365 $D=0
M345 366 109 GND GND NM L=1.8e-07 W=4.4e-07 $X=76090 $Y=9135 $D=0
M346 INVQ3 Q3 GND GND NM L=1.8e-07 W=4.4e-07 $X=76280 $Y=-29715 $D=0
M347 INVQ8 Q8 GND GND NM L=1.8e-07 W=4.4e-07 $X=76280 $Y=-7515 $D=0
M348 GND 38 365 GND NM L=1.8e-07 W=4.4e-07 $X=76810 $Y=-46365 $D=0
M349 GND 39 366 GND NM L=1.8e-07 W=4.4e-07 $X=76810 $Y=9135 $D=0
M350 125 358 GND GND NM L=1.8e-07 W=2.2e-07 $X=77490 $Y=-42545 $D=0
M351 124 359 GND GND NM L=1.8e-07 W=2.2e-07 $X=77490 $Y=5535 $D=0
M352 111 370 GND GND NM L=1.8e-07 W=4.4e-07 $X=77530 $Y=-46365 $D=0
M353 112 371 GND GND NM L=1.8e-07 W=4.4e-07 $X=77530 $Y=9135 $D=0
M354 378 Q2I GND GND NM L=1.8e-07 W=2.2e-07 $X=78260 $Y=-29595 $D=0
M355 379 Q7I GND GND NM L=1.8e-07 W=2.2e-07 $X=78260 $Y=-7415 $D=0
M356 375 123 113 GND NM L=1.8e-07 W=4.4e-07 $X=78700 $Y=-20465 $D=0
M357 GND 372 375 GND NM L=1.8e-07 W=4.4e-07 $X=79420 $Y=-20465 $D=0
M358 GND 380 114 GND NM L=1.8e-07 W=2.2e-07 $X=79510 $Y=-46265 $D=0
M359 GND 381 115 GND NM L=1.8e-07 W=2.2e-07 $X=79510 $Y=9255 $D=0
M360 GND 373 374 GND NM L=1.8e-07 W=4.4e-07 $X=79620 $Y=-16765 $D=0
M361 372 121 GND GND NM L=1.8e-07 W=2.2e-07 $X=80180 $Y=-20365 $D=0
M362 376 RST GND GND NM L=1.8e-07 W=4.4e-07 $X=80240 $Y=-29715 $D=0
M363 377 RST GND GND NM L=1.8e-07 W=4.4e-07 $X=80240 $Y=-7515 $D=0
M364 497 118 GND GND NM L=1.8e-07 W=4.4e-07 $X=80340 $Y=-16765 $D=0
M365 373 121 497 GND NM L=1.8e-07 W=4.4e-07 $X=80770 $Y=-16765 $D=0
M366 GND 378 376 GND NM L=1.8e-07 W=4.4e-07 $X=80960 $Y=-29715 $D=0
M367 GND 379 377 GND NM L=1.8e-07 W=4.4e-07 $X=80960 $Y=-7515 $D=0
M368 498 376 GND GND NM L=1.8e-07 W=4.4e-07 $X=81680 $Y=-29715 $D=0
M369 499 377 GND GND NM L=1.8e-07 W=4.4e-07 $X=81680 $Y=-7515 $D=0
M370 382 CLK 498 GND NM L=1.8e-07 W=4.4e-07 $X=82110 $Y=-29715 $D=0
M371 383 CLK 499 GND NM L=1.8e-07 W=4.4e-07 $X=82110 $Y=-7515 $D=0
M372 392 373 386 GND NM L=1.8e-07 W=4.4e-07 $X=82710 $Y=-16765 $D=0
M373 500 121 393 GND NM L=1.8e-07 W=4.4e-07 $X=82960 $Y=-20465 $D=0
M374 GND 116 390 GND NM L=1.8e-07 W=4.4e-07 $X=83360 $Y=-46365 $D=0
M375 GND 117 391 GND NM L=1.8e-07 W=4.4e-07 $X=83360 $Y=9135 $D=0
M376 GND 118 500 GND NM L=1.8e-07 W=4.4e-07 $X=83390 $Y=-20465 $D=0
M377 GND 118 392 GND NM L=1.8e-07 W=4.4e-07 $X=83430 $Y=-16765 $D=0
M378 501 CLK Q2 GND NM L=1.8e-07 W=4.4e-07 $X=84050 $Y=-29715 $D=0