* SPICE NETLIST
***************************************

.SUBCKT n18_CDNS_6738901947925 1 2 3 4
** N=4 EP=4 IP=0 FDC=1
M0 3 4 2 1 NM L=1.8e-07 W=4.4e-07 $X=0 $Y=0 $D=0
.ENDS
***************************************
.SUBCKT p18_CDNS_6738901947922 1 2 3
** N=4 EP=3 IP=0 FDC=1
M0 1 3 2 1 PM L=1.8e-07 W=3.3e-06 $X=0 $Y=0 $D=4
.ENDS
***************************************
.SUBCKT p18_CDNS_6738901947929 1 2 3 4
** N=4 EP=4 IP=0 FDC=1
M0 2 3 1 4 PM L=1.8e-07 W=4.4e-07 $X=0 $Y=0 $D=4
.ENDS
***************************************
.SUBCKT n18_CDNS_6738901947921 1 2 3
** N=3 EP=3 IP=0 FDC=1
M0 2 3 1 1 NM L=1.8e-07 W=8.8e-07 $X=0 $Y=0 $D=0
.ENDS
***************************************
.SUBCKT n18_CDNS_6738901947923 1 2 3 4
** N=4 EP=4 IP=0 FDC=1
M0 2 3 1 4 NM L=1.8e-07 W=4.4e-07 $X=0 $Y=0 $D=0
.ENDS
***************************************
.SUBCKT n18_CDNS_6738901947918 1 2 3 4
** N=4 EP=4 IP=0 FDC=1
M0 2 3 1 4 NM L=1.8e-07 W=4.4e-07 $X=0 $Y=0 $D=0
.ENDS
***************************************
.SUBCKT ICV_1 1 2 3 4 5 6
** N=6 EP=6 IP=8 FDC=2
X0 1 2 5 6 n18_CDNS_6738901947923 $T=0 -1660 0 0 $X=-660 $Y=-2010
X1 3 4 5 6 n18_CDNS_6738901947918 $T=0 0 0 0 $X=-660 $Y=-350
.ENDS
***************************************
.SUBCKT n18_CDNS_6738901947916 1 2 3 4
** N=4 EP=4 IP=0 FDC=1
M0 3 4 2 1 NM L=1.8e-07 W=1.76e-06 $X=0 $Y=0 $D=0
.ENDS
***************************************
.SUBCKT n18_CDNS_6738901947917 1 2 3 4
** N=4 EP=4 IP=0 FDC=1
M0 3 4 2 1 NM L=1.8e-07 W=1.76e-06 $X=0 $Y=0 $D=0
.ENDS
***************************************
.SUBCKT ICV_2 1 2 3 4 5 6 7 8
** N=8 EP=8 IP=16 FDC=4
X0 1 2 1 6 n18_CDNS_6738901947916 $T=0 0 0 0 $X=-660 $Y=-1130
X1 1 1 3 7 n18_CDNS_6738901947916 $T=2020 0 0 0 $X=1360 $Y=-1130
X2 1 2 4 8 n18_CDNS_6738901947917 $T=0 2900 0 0 $X=-660 $Y=2550
X3 1 5 3 8 n18_CDNS_6738901947917 $T=2020 2900 0 0 $X=1360 $Y=2550
.ENDS
***************************************
.SUBCKT ICV_3 1 2 3 4 5 6 7 8 9 10 11 12 13 14
** N=14 EP=14 IP=16 FDC=8
X0 1 2 5 3 4 10 12 11 ICV_2 $T=0 0 0 0 $X=-660 $Y=-1130
X1 1 6 9 7 8 13 14 11 ICV_2 $T=4460 0 0 0 $X=3800 $Y=-1130
.ENDS
***************************************
.SUBCKT p18_CDNS_673890194795 1 2 3 4
** N=4 EP=4 IP=0 FDC=1
M0 3 4 2 1 PM L=1.8e-07 W=4.4e-07 $X=0 $Y=0 $D=4
.ENDS
***************************************
.SUBCKT ICV_4 1 2 3 4
** N=5 EP=4 IP=8 FDC=2
X0 1 1 2 4 p18_CDNS_673890194795 $T=0 0 0 0 $X=-910 $Y=-430
X1 1 3 1 4 p18_CDNS_673890194795 $T=1940 0 0 0 $X=1030 $Y=-430
.ENDS
***************************************
.SUBCKT ICV_5 1 2 3 4 5 6
** N=7 EP=6 IP=10 FDC=4
X0 1 2 3 6 ICV_4 $T=0 0 0 0 $X=-910 $Y=-430
X1 1 4 5 6 ICV_4 $T=4460 0 0 0 $X=3550 $Y=-430
.ENDS
***************************************
.SUBCKT p18_CDNS_6738901947920 1 2 3
** N=3 EP=3 IP=0 FDC=1
M0 2 3 1 1 PM L=1.8e-07 W=4.4e-07 $X=0 $Y=0 $D=4
.ENDS
***************************************
.SUBCKT ICV_6 1 2 3 4
** N=5 EP=4 IP=6 FDC=2
X0 1 2 4 p18_CDNS_6738901947920 $T=-2020 0 0 0 $X=-2930 $Y=-1130
X1 1 3 2 p18_CDNS_6738901947920 $T=0 0 0 0 $X=-910 $Y=-1130
.ENDS
***************************************
.SUBCKT n18_CDNS_6738901947924 1 2 3
** N=3 EP=3 IP=0 FDC=1
M0 2 3 1 1 NM L=1.8e-07 W=2.2e-07 $X=0 $Y=0 $D=0
.ENDS
***************************************
.SUBCKT n18_CDNS_6738901947919 1 2 3
** N=3 EP=3 IP=0 FDC=1
M0 2 3 1 1 NM L=1.8e-07 W=2.2e-07 $X=0 $Y=0 $D=0
.ENDS
***************************************
.SUBCKT ICV_7 1 2 3 4
** N=4 EP=4 IP=6 FDC=2
X0 1 2 4 n18_CDNS_6738901947924 $T=-2020 0 0 0 $X=-2720 $Y=-350
X1 1 3 2 n18_CDNS_6738901947919 $T=0 0 0 0 $X=-700 $Y=-350
.ENDS
***************************************
.SUBCKT ICV_8 1 2 3 4 5 6 7 8
** N=8 EP=8 IP=18 FDC=8
X0 1 2 3 7 ICV_6 $T=-4460 0 0 0 $X=-7390 $Y=-1130
X1 1 4 5 8 ICV_6 $T=0 0 0 0 $X=-2930 $Y=-1130
X2 6 2 3 7 ICV_7 $T=-4460 1650 0 0 $X=-7180 $Y=1300
X3 6 4 5 8 ICV_7 $T=0 1650 0 0 $X=-2720 $Y=1300
.ENDS
***************************************
.SUBCKT n18_CDNS_6738901947915 1 2 3
** N=3 EP=3 IP=0 FDC=1
M0 2 3 1 1 NM L=1.8e-07 W=8e-07 $X=0 $Y=0 $D=0
.ENDS
***************************************
.SUBCKT n18_CDNS_6738901947926 1 2 3
** N=3 EP=3 IP=0 FDC=1
M0 2 3 1 2 NM L=1.8e-07 W=8e-07 $X=0 $Y=0 $D=0
.ENDS
***************************************
.SUBCKT ICV_9 1 2 3
** N=3 EP=3 IP=6 FDC=2
X0 1 2 3 n18_CDNS_6738901947915 $T=0 0 0 0 $X=-1520 $Y=-350
X1 3 1 2 n18_CDNS_6738901947926 $T=2020 0 0 0 $X=1360 $Y=-350
.ENDS
***************************************
.SUBCKT ICV_10 1 2 3 4 5
** N=5 EP=5 IP=6 FDC=4
X0 1 2 3 ICV_9 $T=0 0 0 0 $X=-1520 $Y=-350
X1 1 4 5 ICV_9 $T=4460 0 0 0 $X=2940 $Y=-350
.ENDS
***************************************
.SUBCKT p18_CDNS_6738901947928 1 2 3 4
** N=4 EP=4 IP=0 FDC=1
M0 3 4 2 1 PM L=1.8e-07 W=2.2e-07 $X=0 $Y=0 $D=4
.ENDS
***************************************
.SUBCKT ICV_11 1 2 3
** N=3 EP=3 IP=8 FDC=2
X0 1 1 2 3 p18_CDNS_6738901947928 $T=0 0 0 0 $X=-950 $Y=-530
X1 1 3 1 2 p18_CDNS_6738901947928 $T=2020 0 0 0 $X=1070 $Y=-530
.ENDS
***************************************
.SUBCKT ICV_12 1 2 3 4 5
** N=5 EP=5 IP=6 FDC=4
X0 1 2 3 ICV_11 $T=0 0 0 0 $X=-950 $Y=-530
X1 1 4 5 ICV_11 $T=4460 0 0 0 $X=3510 $Y=-530
.ENDS
***************************************
.SUBCKT ICV_13 1 2 3 4 5 6 7 8 9 10
** N=10 EP=10 IP=20 FDC=16
X0 1 2 3 4 5 ICV_10 $T=0 0 0 0 $X=-1520 $Y=-350
X1 1 6 7 8 9 ICV_10 $T=8920 0 0 0 $X=7400 $Y=-350
X2 10 2 3 4 5 ICV_12 $T=0 1950 0 0 $X=-950 $Y=1420
X3 10 6 7 8 9 ICV_12 $T=8920 1950 0 0 $X=7970 $Y=1420
.ENDS
***************************************
.SUBCKT ICV_14 1 2 3 4 5 6 7 8 9 10 11 12 13 14 15 16 17 18
** N=18 EP=18 IP=20 FDC=32
X0 1 3 4 5 6 7 8 9 10 2 ICV_13 $T=0 0 0 0 $X=-1520 $Y=-350
X1 1 11 12 13 14 15 16 17 18 2 ICV_13 $T=17840 0 0 0 $X=16320 $Y=-350
.ENDS
***************************************
.SUBCKT ICV_15 1 2 3 4 5 6 7 8 9 10 11 12 13 14 15 16 17 18 19 20
+ 21 22 23 24 25 26 27 28 29 30 31 32 33 34
** N=34 EP=34 IP=36 FDC=64
X0 1 2 3 4 5 6 7 8 9 10 11 12 13 14 15 16 17 18 ICV_14 $T=0 0 0 0 $X=-1520 $Y=-350
X1 1 2 19 20 21 22 23 24 25 26 27 28 29 30 31 32 33 34 ICV_14 $T=35680 0 0 0 $X=34160 $Y=-350
.ENDS
***************************************
.SUBCKT n18_CDNS_6738901947913 1 2 3
** N=3 EP=3 IP=0 FDC=1
M0 2 3 1 1 NM L=1.8e-07 W=1.76e-06 $X=0 $Y=0 $D=0
.ENDS
***************************************
.SUBCKT p18_CDNS_6738901947914 1 2 3
** N=3 EP=3 IP=0 FDC=1
M0 2 3 1 1 PM L=1.8e-07 W=3.52e-06 $X=0 $Y=0 $D=4
.ENDS
***************************************
.SUBCKT n18_CDNS_673890194799 1 2 3 4
** N=4 EP=4 IP=0 FDC=1
M0 3 4 2 1 NM L=1.8e-07 W=4.4e-07 $X=0 $Y=0 $D=0
.ENDS
***************************************
.SUBCKT n18_CDNS_6738901947911 1 2 3
** N=3 EP=3 IP=0 FDC=1
M0 2 3 1 1 NM L=1.8e-07 W=8.8e-07 $X=0 $Y=0 $D=0
.ENDS
***************************************
.SUBCKT ICV_16 1 2 3 4
** N=4 EP=4 IP=6 FDC=2
X0 1 2 4 n18_CDNS_6738901947911 $T=0 0 0 0 $X=-660 $Y=-1130
X1 1 3 2 n18_CDNS_6738901947911 $T=1940 0 0 0 $X=1280 $Y=-1130
.ENDS
***************************************
.SUBCKT p18_CDNS_6738901947912 1 2 3
** N=3 EP=3 IP=0 FDC=1
M0 2 3 1 1 PM L=1.8e-07 W=1.76e-06 $X=0 $Y=0 $D=4
.ENDS
***************************************
.SUBCKT ICV_17 1 2 3 4
** N=4 EP=4 IP=6 FDC=2
X0 1 2 4 p18_CDNS_6738901947912 $T=0 0 0 0 $X=-910 $Y=-430
X1 1 3 2 p18_CDNS_6738901947912 $T=1940 0 0 0 $X=1030 $Y=-430
.ENDS
***************************************
.SUBCKT p18_CDNS_673890194794 1 2 3
** N=3 EP=3 IP=0 FDC=1
M0 3 2 1 1 PM L=1.8e-07 W=8.8e-07 $X=0 $Y=0 $D=4
.ENDS
***************************************
.SUBCKT p18_CDNS_6738901947910 1 2 3 4
** N=4 EP=4 IP=0 FDC=1
M0 2 3 4 1 PM L=1.8e-07 W=8.8e-07 $X=0 $Y=0 $D=4
.ENDS
***************************************
.SUBCKT ICV_18 1 2 3 4
** N=5 EP=4 IP=7 FDC=2
X0 1 3 5 p18_CDNS_673890194794 $T=0 0 0 0 $X=-910 $Y=-430
X1 1 2 4 5 p18_CDNS_6738901947910 $T=430 0 0 0 $X=-125 $Y=-430
.ENDS
***************************************
.SUBCKT n18_CDNS_673890194798 1 2 3
** N=3 EP=3 IP=0 FDC=1
M0 2 3 1 1 NM L=1.8e-07 W=2.2e-07 $X=0 $Y=0 $D=0
.ENDS
***************************************
.SUBCKT ICV_19 1 2 3 4 5
** N=5 EP=5 IP=7 FDC=2
X0 1 2 3 5 n18_CDNS_673890194799 $T=1980 -100 0 0 $X=1320 $Y=-1230
X1 1 4 5 n18_CDNS_673890194798 $T=0 0 0 0 $X=-700 $Y=-1230
.ENDS
***************************************
.SUBCKT n18_CDNS_673890194797 1 2 3 4
** N=4 EP=4 IP=0 FDC=1
M0 2 3 4 1 NM L=1.8e-07 W=4.4e-07 $X=0 $Y=0 $D=0
.ENDS
***************************************
.SUBCKT n18_CDNS_673890194796 1 2 3
** N=3 EP=3 IP=0 FDC=1
M0 3 2 1 1 NM L=1.8e-07 W=4.4e-07 $X=0 $Y=0 $D=0
.ENDS
***************************************
.SUBCKT p18_CDNS_673890194790 1 2 3
** N=3 EP=3 IP=0 FDC=1
M0 2 3 1 1 PM L=1.8e-07 W=8.8e-07 $X=0 $Y=0 $D=4
.ENDS
***************************************
.SUBCKT ICV_20 1 2 3 4 5
** N=5 EP=5 IP=6 FDC=2
X0 1 2 4 n18_CDNS_673890194798 $T=0 0 0 0 $X=-700 $Y=-1230
X1 1 3 5 n18_CDNS_673890194798 $T=2020 0 0 0 $X=1320 $Y=-1230
.ENDS
***************************************
.SUBCKT ICV_21 1 2 3 4 5
** N=5 EP=5 IP=6 FDC=2
X0 1 2 4 n18_CDNS_673890194798 $T=0 -1680 1 0 $X=-700 $Y=-2250
X1 1 3 5 n18_CDNS_673890194798 $T=0 0 0 0 $X=-700 $Y=-1230
.ENDS
***************************************
.SUBCKT ICV_22 1 2 3 4 5 6 7 8 9
** N=9 EP=9 IP=10 FDC=4
X0 1 2 3 6 7 ICV_21 $T=0 0 0 0 $X=-700 $Y=-2250
X1 1 4 5 8 9 ICV_21 $T=2020 0 0 0 $X=1320 $Y=-2250
.ENDS
***************************************
.SUBCKT ICV_23 1 2 3 4 5
** N=5 EP=5 IP=8 FDC=2
X0 1 1 2 4 p18_CDNS_673890194795 $T=0 0 0 0 $X=-910 $Y=-430
X1 1 1 3 5 p18_CDNS_673890194795 $T=0 2360 1 0 $X=-910 $Y=790
.ENDS
***************************************
.SUBCKT ICV_24 1 2 3 4 5 6 7 8 9
** N=9 EP=9 IP=10 FDC=4
X0 1 2 3 6 7 ICV_23 $T=0 0 0 0 $X=-910 $Y=-430
X1 1 4 5 8 9 ICV_23 $T=2020 0 0 0 $X=1110 $Y=-430
.ENDS
***************************************
.SUBCKT ICV_25 1 2 3 4 5 6 7 8 9
** N=9 EP=9 IP=10 FDC=4
X0 1 3 4 2 7 ICV_19 $T=4040 0 0 0 $X=3340 $Y=-1230
X1 1 5 6 8 9 ICV_20 $T=0 0 0 0 $X=-700 $Y=-1230
.ENDS
***************************************
.SUBCKT ICV_26 1 2 3 4 5 6 7
** N=8 EP=7 IP=12 FDC=3
X0 1 1 2 5 p18_CDNS_673890194795 $T=0 0 0 0 $X=-910 $Y=-430
X1 1 1 3 6 p18_CDNS_673890194795 $T=2020 0 0 0 $X=1110 $Y=-430
X2 1 1 4 7 p18_CDNS_673890194795 $T=4040 0 0 0 $X=3130 $Y=-430
.ENDS
***************************************
.SUBCKT ICV_27 1 2 3 4 5
** N=5 EP=5 IP=6 FDC=2
X0 1 2 4 p18_CDNS_673890194790 $T=0 0 0 0 $X=-910 $Y=-430
X1 1 3 5 p18_CDNS_673890194790 $T=0 3240 1 0 $X=-910 $Y=1230
.ENDS
***************************************
.SUBCKT ICV_28 1 2 3 4 5
** N=5 EP=5 IP=6 FDC=2
X0 1 2 4 n18_CDNS_6738901947911 $T=0 -1480 1 0 $X=-660 $Y=-2710
X1 1 3 5 n18_CDNS_6738901947911 $T=0 0 0 0 $X=-660 $Y=-1130
.ENDS
***************************************
.SUBCKT ICV_29 1 2 3 4 5 6 7
** N=7 EP=7 IP=10 FDC=4
X0 1 2 3 6 7 ICV_28 $T=0 0 0 0 $X=-660 $Y=-2710
X1 1 4 5 2 3 ICV_28 $T=1940 0 0 0 $X=1280 $Y=-2710
.ENDS
***************************************
.SUBCKT ICV_30 1 2 3 4 5 6 7
** N=7 EP=7 IP=8 FDC=4
X0 1 2 3 6 ICV_17 $T=0 0 0 0 $X=-910 $Y=-430
X1 1 4 5 7 ICV_17 $T=0 5000 1 0 $X=-910 $Y=2110
.ENDS
***************************************
.SUBCKT ICV_31 1 2 3 4 5 6
** N=6 EP=6 IP=8 FDC=4
X0 1 2 3 6 ICV_16 $T=0 0 0 0 $X=-660 $Y=-1130
X1 1 4 5 3 ICV_16 $T=3880 0 0 0 $X=3220 $Y=-1130
.ENDS
***************************************
.SUBCKT ICV_32 1 2 3 4 5 6 7 8 9 10
** N=10 EP=10 IP=12 FDC=8
X0 1 2 3 4 5 10 ICV_31 $T=0 0 0 0 $X=-660 $Y=-1130
X1 1 6 7 8 9 5 ICV_31 $T=7760 0 0 0 $X=7100 $Y=-1130
.ENDS
***************************************
.SUBCKT ICV_33 1 2 3 4 5 6
** N=7 EP=6 IP=8 FDC=4
X0 1 2 3 6 ICV_17 $T=0 0 0 0 $X=-910 $Y=-430
X1 1 4 5 3 ICV_17 $T=3880 0 0 0 $X=2970 $Y=-430
.ENDS
***************************************
.SUBCKT ICV_34 1 2 3 4 5 6 7 8 9 10
** N=11 EP=10 IP=14 FDC=8
X0 1 2 3 4 5 10 ICV_33 $T=0 0 0 0 $X=-910 $Y=-430
X1 1 6 7 8 9 5 ICV_33 $T=7760 0 0 0 $X=6850 $Y=-430
.ENDS
***************************************
.SUBCKT ICV_35 1 2 3 4 5 6 7 8 9 10 11
** N=11 EP=11 IP=14 FDC=8
X0 1 2 4 3 5 10 11 ICV_30 $T=0 0 0 0 $X=-910 $Y=-430
X1 1 6 8 7 9 4 5 ICV_30 $T=3880 0 0 0 $X=2970 $Y=-430
.ENDS
***************************************
.SUBCKT ICV_36 1 2 3 4 5
** N=6 EP=5 IP=10 FDC=3
X0 1 2 3 n18_CDNS_673890194798 $T=0 0 0 0 $X=-700 $Y=-1230
X1 1 3 4 6 n18_CDNS_673890194797 $T=-2230 -100 0 0 $X=-2550 $Y=-1230
X2 1 5 6 n18_CDNS_673890194796 $T=-2660 -100 0 0 $X=-3320 $Y=-1230
.ENDS
***************************************
.SUBCKT p18_CDNS_673890194791 1 2 3
** N=3 EP=3 IP=0 FDC=1
M0 3 2 1 1 PM L=1.8e-07 W=1.32e-06 $X=0 $Y=0 $D=4
.ENDS
***************************************
.SUBCKT p18_CDNS_673890194792 1 2 3 4
** N=4 EP=4 IP=0 FDC=1
M0 4 2 3 1 PM L=1.8e-07 W=1.32e-06 $X=0 $Y=0 $D=4
.ENDS
***************************************
.SUBCKT p18_CDNS_673890194793 1 2 3 4
** N=4 EP=4 IP=0 FDC=1
M0 2 3 4 1 PM L=1.8e-07 W=1.32e-06 $X=0 $Y=0 $D=4
.ENDS
***************************************
.SUBCKT n18_CDNS_6738901947927 1 2 3 4
** N=4 EP=4 IP=0 FDC=1
M0 3 4 2 1 NM L=1.8e-07 W=2.2e-07 $X=0 $Y=0 $D=0
.ENDS
***************************************
.SUBCKT BONUS3 Q4 Q5 Q6 Q7 Q8 Q3 Q2 Q1 Q0 CLK RST SEL ADD2 ADD1 ADD0 GND MODE VDD IN0 IN1
+ IN2 IN3 IN4 IN5 IN6 IN7 IN8 IN9 IN10 IN11 IN12 IN13 IN14 IN15
** N=1567 EP=34 IP=3040 FDC=3443
M0 37 77 80 GND NM L=1.8e-07 W=4.4e-07 $X=-168335 $Y=-103525 $D=0
M1 GND 79 80 GND NM L=1.8e-07 W=4.4e-07 $X=-165675 $Y=-103525 $D=0
M2 38 81 84 GND NM L=1.8e-07 W=4.4e-07 $X=-156955 $Y=-103525 $D=0
M3 GND 83 84 GND NM L=1.8e-07 W=4.4e-07 $X=-154295 $Y=-103525 $D=0
M4 41 85 88 GND NM L=1.8e-07 W=4.4e-07 $X=-145575 $Y=-103525 $D=0
M5 GND 87 88 GND NM L=1.8e-07 W=4.4e-07 $X=-142915 $Y=-103525 $D=0
M6 42 89 92 GND NM L=1.8e-07 W=4.4e-07 $X=-134195 $Y=-103525 $D=0
M7 GND 91 92 GND NM L=1.8e-07 W=4.4e-07 $X=-131535 $Y=-103525 $D=0
M8 45 93 96 GND NM L=1.8e-07 W=4.4e-07 $X=-122815 $Y=-103525 $D=0
M9 GND 95 96 GND NM L=1.8e-07 W=4.4e-07 $X=-120155 $Y=-103525 $D=0
M10 47 97 100 GND NM L=1.8e-07 W=4.4e-07 $X=-111435 $Y=-103525 $D=0
M11 GND 99 100 GND NM L=1.8e-07 W=4.4e-07 $X=-108775 $Y=-103525 $D=0
M12 49 101 104 GND NM L=1.8e-07 W=4.4e-07 $X=-100055 $Y=-103525 $D=0
M13 GND 103 104 GND NM L=1.8e-07 W=4.4e-07 $X=-97395 $Y=-103525 $D=0
M14 52 105 108 GND NM L=1.8e-07 W=4.4e-07 $X=-88675 $Y=-103525 $D=0
M15 GND 107 108 GND NM L=1.8e-07 W=4.4e-07 $X=-86015 $Y=-103525 $D=0
M16 56 109 112 GND NM L=1.8e-07 W=4.4e-07 $X=-77295 $Y=-103525 $D=0
M17 GND 111 112 GND NM L=1.8e-07 W=4.4e-07 $X=-74635 $Y=-103525 $D=0
M18 58 113 116 GND NM L=1.8e-07 W=4.4e-07 $X=-65915 $Y=-103525 $D=0
M19 GND 115 116 GND NM L=1.8e-07 W=4.4e-07 $X=-63255 $Y=-103525 $D=0
M20 62 117 120 GND NM L=1.8e-07 W=4.4e-07 $X=-54535 $Y=-103525 $D=0
M21 GND 119 120 GND NM L=1.8e-07 W=4.4e-07 $X=-51875 $Y=-103525 $D=0
M22 66 121 124 GND NM L=1.8e-07 W=4.4e-07 $X=-43155 $Y=-103525 $D=0
M23 GND 123 124 GND NM L=1.8e-07 W=4.4e-07 $X=-40495 $Y=-103525 $D=0
M24 68 125 128 GND NM L=1.8e-07 W=4.4e-07 $X=-31775 $Y=-103525 $D=0
M25 GND 127 128 GND NM L=1.8e-07 W=4.4e-07 $X=-29115 $Y=-103525 $D=0
M26 71 129 132 GND NM L=1.8e-07 W=4.4e-07 $X=-20395 $Y=-103525 $D=0
M27 GND 131 132 GND NM L=1.8e-07 W=4.4e-07 $X=-17735 $Y=-103525 $D=0
M28 74 133 136 GND NM L=1.8e-07 W=4.4e-07 $X=-9015 $Y=-103525 $D=0
M29 GND 135 136 GND NM L=1.8e-07 W=4.4e-07 $X=-6355 $Y=-103525 $D=0
M30 76 137 141 GND NM L=1.8e-07 W=4.4e-07 $X=2365 $Y=-103525 $D=0
M31 GND 140 141 GND NM L=1.8e-07 W=4.4e-07 $X=5025 $Y=-103525 $D=0
M32 405 167 14 GND NM L=1.8e-07 W=4.4e-07 $X=17320 $Y=-12965 $D=0
M33 GND 414 144 GND NM L=1.8e-07 W=2.2e-07 $X=17400 $Y=-38765 $D=0
M34 GND 148 142 GND NM L=1.8e-07 W=2.2e-07 $X=17400 $Y=-35045 $D=0
M35 GND 149 143 GND NM L=1.8e-07 W=2.2e-07 $X=17400 $Y=13035 $D=0
M36 GND 415 145 GND NM L=1.8e-07 W=2.2e-07 $X=17400 $Y=16755 $D=0
M37 406 6 GND GND NM L=1.8e-07 W=2.2e-07 $X=17440 $Y=-54210 $D=0
M38 407 6 GND GND NM L=1.8e-07 W=2.2e-07 $X=17440 $Y=-52410 $D=0
M39 408 6 GND GND NM L=1.8e-07 W=2.2e-07 $X=17440 $Y=-47590 $D=0
M40 409 6 GND GND NM L=1.8e-07 W=2.2e-07 $X=17440 $Y=-45790 $D=0
M41 157 151 142 GND NM L=1.8e-07 W=4.4e-07 $X=17440 $Y=-25915 $D=0
M42 404 166 14 GND NM L=1.8e-07 W=4.4e-07 $X=17440 $Y=-9265 $D=0
M43 150 152 143 GND NM L=1.8e-07 W=4.4e-07 $X=17440 $Y=3685 $D=0
M44 410 59 GND GND NM L=1.8e-07 W=2.2e-07 $X=17440 $Y=23780 $D=0
M45 411 59 GND GND NM L=1.8e-07 W=2.2e-07 $X=17440 $Y=25580 $D=0
M46 412 59 GND GND NM L=1.8e-07 W=2.2e-07 $X=17440 $Y=30400 $D=0
M47 413 59 GND GND NM L=1.8e-07 W=2.2e-07 $X=17440 $Y=32200 $D=0
M48 GND 416 405 GND NM L=1.8e-07 W=4.4e-07 $X=18040 $Y=-12965 $D=0
M49 1273 146 GND GND NM L=1.8e-07 W=4.4e-07 $X=18160 $Y=-38865 $D=0
M50 1274 144 GND GND NM L=1.8e-07 W=4.4e-07 $X=18160 $Y=-35165 $D=0
M51 148 153 157 GND NM L=1.8e-07 W=4.4e-07 $X=18160 $Y=-25915 $D=0
M52 149 154 150 GND NM L=1.8e-07 W=4.4e-07 $X=18160 $Y=3685 $D=0
M53 1275 145 GND GND NM L=1.8e-07 W=4.4e-07 $X=18160 $Y=12935 $D=0
M54 1276 147 GND GND NM L=1.8e-07 W=4.4e-07 $X=18160 $Y=16635 $D=0
M55 GND 417 404 GND NM L=1.8e-07 W=4.4e-07 $X=18240 $Y=-9265 $D=0
M56 414 160 1273 GND NM L=1.8e-07 W=4.4e-07 $X=18590 $Y=-38865 $D=0
M57 148 155 1274 GND NM L=1.8e-07 W=4.4e-07 $X=18590 $Y=-35165 $D=0
M58 149 156 1275 GND NM L=1.8e-07 W=4.4e-07 $X=18590 $Y=12935 $D=0
M59 415 161 1276 GND NM L=1.8e-07 W=4.4e-07 $X=18590 $Y=16635 $D=0
M60 416 157 GND GND NM L=1.8e-07 W=2.2e-07 $X=18800 $Y=-12865 $D=0
M61 1277 150 GND GND NM L=1.8e-07 W=4.4e-07 $X=18960 $Y=-9265 $D=0
M62 417 157 1277 GND NM L=1.8e-07 W=4.4e-07 $X=19390 $Y=-9265 $D=0
M63 155 6 11 GND NM L=1.8e-07 W=2.2e-07 $X=19460 $Y=-54210 $D=0
M64 146 6 9 GND NM L=1.8e-07 W=2.2e-07 $X=19460 $Y=-52410 $D=0
M65 188 6 7 GND NM L=1.8e-07 W=2.2e-07 $X=19460 $Y=-47590 $D=0
M66 205 6 8 GND NM L=1.8e-07 W=2.2e-07 $X=19460 $Y=-45790 $D=0
M67 207 59 65 GND NM L=1.8e-07 W=2.2e-07 $X=19460 $Y=23780 $D=0
M68 189 59 63 GND NM L=1.8e-07 W=2.2e-07 $X=19460 $Y=25580 $D=0
M69 147 59 73 GND NM L=1.8e-07 W=2.2e-07 $X=19460 $Y=30400 $D=0
M70 156 59 70 GND NM L=1.8e-07 W=2.2e-07 $X=19460 $Y=32200 $D=0
M71 GND 150 416 GND NM L=1.8e-07 W=2.2e-07 $X=19600 $Y=-12865 $D=0
M72 418 177 151 GND NM L=1.8e-07 W=4.4e-07 $X=19990 $Y=-22215 $D=0
M73 419 178 152 GND NM L=1.8e-07 W=4.4e-07 $X=19990 $Y=-15 $D=0
M74 420 173 151 GND NM L=1.8e-07 W=4.4e-07 $X=20100 $Y=-25915 $D=0
M75 421 174 152 GND NM L=1.8e-07 W=4.4e-07 $X=20100 $Y=3685 $D=0
M76 GND 406 155 GND NM L=1.8e-07 W=2.2e-07 $X=20260 $Y=-54210 $D=0
M77 GND 407 146 GND NM L=1.8e-07 W=2.2e-07 $X=20260 $Y=-52410 $D=0
M78 GND 408 188 GND NM L=1.8e-07 W=2.2e-07 $X=20260 $Y=-47590 $D=0
M79 GND 409 205 GND NM L=1.8e-07 W=2.2e-07 $X=20260 $Y=-45790 $D=0
M80 GND 410 207 GND NM L=1.8e-07 W=2.2e-07 $X=20260 $Y=23780 $D=0
M81 GND 411 189 GND NM L=1.8e-07 W=2.2e-07 $X=20260 $Y=25580 $D=0
M82 GND 412 147 GND NM L=1.8e-07 W=2.2e-07 $X=20260 $Y=30400 $D=0
M83 GND 413 156 GND NM L=1.8e-07 W=2.2e-07 $X=20260 $Y=32200 $D=0
M84 427 414 422 GND NM L=1.8e-07 W=4.4e-07 $X=20530 $Y=-38865 $D=0
M85 428 148 423 GND NM L=1.8e-07 W=4.4e-07 $X=20530 $Y=-35165 $D=0
M86 429 149 424 GND NM L=1.8e-07 W=4.4e-07 $X=20530 $Y=12935 $D=0
M87 430 415 425 GND NM L=1.8e-07 W=4.4e-07 $X=20530 $Y=16635 $D=0
M88 GND 146 427 GND NM L=1.8e-07 W=4.4e-07 $X=21250 $Y=-38865 $D=0
M89 GND 144 428 GND NM L=1.8e-07 W=4.4e-07 $X=21250 $Y=-35165 $D=0
M90 GND 145 429 GND NM L=1.8e-07 W=4.4e-07 $X=21250 $Y=12935 $D=0
M91 GND 147 430 GND NM L=1.8e-07 W=4.4e-07 $X=21250 $Y=16635 $D=0
M92 444 417 426 GND NM L=1.8e-07 W=4.4e-07 $X=21330 $Y=-9265 $D=0
M93 1278 157 445 GND NM L=1.8e-07 W=4.4e-07 $X=21580 $Y=-12965 $D=0
M94 434 177 153 GND NM L=1.8e-07 W=4.4e-07 $X=21930 $Y=-22215 $D=0
M95 435 178 154 GND NM L=1.8e-07 W=4.4e-07 $X=21930 $Y=-15 $D=0
M96 427 160 GND GND NM L=1.8e-07 W=4.4e-07 $X=21970 $Y=-38865 $D=0
M97 428 155 GND GND NM L=1.8e-07 W=4.4e-07 $X=21970 $Y=-35165 $D=0
M98 429 156 GND GND NM L=1.8e-07 W=4.4e-07 $X=21970 $Y=12935 $D=0
M99 430 161 GND GND NM L=1.8e-07 W=4.4e-07 $X=21970 $Y=16635 $D=0
M100 GND 150 1278 GND NM L=1.8e-07 W=4.4e-07 $X=22010 $Y=-12965 $D=0
M101 431 173 153 GND NM L=1.8e-07 W=4.4e-07 $X=22050 $Y=-25915 $D=0
M102 GND 150 444 GND NM L=1.8e-07 W=4.4e-07 $X=22050 $Y=-9265 $D=0
M103 433 174 154 GND NM L=1.8e-07 W=4.4e-07 $X=22050 $Y=3685 $D=0
M104 436 10 GND GND NM L=1.8e-07 W=2.2e-07 $X=22290 $Y=-54210 $D=0
M105 437 10 GND GND NM L=1.8e-07 W=2.2e-07 $X=22290 $Y=-52410 $D=0
M106 438 10 GND GND NM L=1.8e-07 W=2.2e-07 $X=22290 $Y=-47590 $D=0
M107 439 10 GND GND NM L=1.8e-07 W=2.2e-07 $X=22290 $Y=-45790 $D=0
M108 440 61 GND GND NM L=1.8e-07 W=2.2e-07 $X=22290 $Y=23780 $D=0
M109 441 61 GND GND NM L=1.8e-07 W=2.2e-07 $X=22290 $Y=25580 $D=0
M110 442 61 GND GND NM L=1.8e-07 W=2.2e-07 $X=22290 $Y=30400 $D=0
M111 443 61 GND GND NM L=1.8e-07 W=2.2e-07 $X=22290 $Y=32200 $D=0
M112 GND 418 434 GND NM L=1.8e-07 W=4.4e-07 $X=22650 $Y=-22215 $D=0
M113 GND 419 435 GND NM L=1.8e-07 W=4.4e-07 $X=22650 $Y=-15 $D=0
M114 445 416 GND GND NM L=1.8e-07 W=2.2e-07 $X=22770 $Y=-12865 $D=0
M115 444 157 GND GND NM L=1.8e-07 W=4.4e-07 $X=22770 $Y=-9265 $D=0
M116 GND 420 431 GND NM L=1.8e-07 W=4.4e-07 $X=22850 $Y=-25915 $D=0
M117 GND 421 433 GND NM L=1.8e-07 W=4.4e-07 $X=22850 $Y=3685 $D=0
M118 418 162 GND GND NM L=1.8e-07 W=2.2e-07 $X=23410 $Y=-22095 $D=0
M119 419 163 GND GND NM L=1.8e-07 W=2.2e-07 $X=23410 $Y=85 $D=0
M120 1279 158 GND GND NM L=1.8e-07 W=4.4e-07 $X=23570 $Y=-25915 $D=0
M121 1280 159 GND GND NM L=1.8e-07 W=4.4e-07 $X=23570 $Y=3685 $D=0
M122 170 422 GND GND NM L=1.8e-07 W=2.2e-07 $X=23950 $Y=-38765 $D=0
M123 158 423 GND GND NM L=1.8e-07 W=2.2e-07 $X=23950 $Y=-35045 $D=0
M124 159 424 GND GND NM L=1.8e-07 W=2.2e-07 $X=23950 $Y=13035 $D=0
M125 171 425 GND GND NM L=1.8e-07 W=2.2e-07 $X=23950 $Y=16755 $D=0
M126 420 162 1279 GND NM L=1.8e-07 W=4.4e-07 $X=24000 $Y=-25915 $D=0
M127 421 163 1280 GND NM L=1.8e-07 W=4.4e-07 $X=24000 $Y=3685 $D=0
M128 GND 158 418 GND NM L=1.8e-07 W=2.2e-07 $X=24210 $Y=-22095 $D=0
M129 GND 159 419 GND NM L=1.8e-07 W=2.2e-07 $X=24210 $Y=85 $D=0
M130 160 10 11 GND NM L=1.8e-07 W=2.2e-07 $X=24310 $Y=-54210 $D=0
M131 186 10 9 GND NM L=1.8e-07 W=2.2e-07 $X=24310 $Y=-52410 $D=0
M132 213 10 7 GND NM L=1.8e-07 W=2.2e-07 $X=24310 $Y=-47590 $D=0
M133 235 10 8 GND NM L=1.8e-07 W=2.2e-07 $X=24310 $Y=-45790 $D=0
M134 236 61 65 GND NM L=1.8e-07 W=2.2e-07 $X=24310 $Y=23780 $D=0
M135 214 61 63 GND NM L=1.8e-07 W=2.2e-07 $X=24310 $Y=25580 $D=0
M136 187 61 73 GND NM L=1.8e-07 W=2.2e-07 $X=24310 $Y=30400 $D=0
M137 161 61 70 GND NM L=1.8e-07 W=2.2e-07 $X=24310 $Y=32200 $D=0
M138 446 445 GND GND NM L=1.8e-07 W=4.4e-07 $X=24750 $Y=-12965 $D=0
M139 447 426 GND GND NM L=1.8e-07 W=4.4e-07 $X=24750 $Y=-9265 $D=0
M140 GND 436 160 GND NM L=1.8e-07 W=2.2e-07 $X=25110 $Y=-54210 $D=0
M141 GND 437 186 GND NM L=1.8e-07 W=2.2e-07 $X=25110 $Y=-52410 $D=0
M142 GND 438 213 GND NM L=1.8e-07 W=2.2e-07 $X=25110 $Y=-47590 $D=0
M143 GND 439 235 GND NM L=1.8e-07 W=2.2e-07 $X=25110 $Y=-45790 $D=0
M144 GND 440 236 GND NM L=1.8e-07 W=2.2e-07 $X=25110 $Y=23780 $D=0
M145 GND 441 214 GND NM L=1.8e-07 W=2.2e-07 $X=25110 $Y=25580 $D=0
M146 GND 442 187 GND NM L=1.8e-07 W=2.2e-07 $X=25110 $Y=30400 $D=0
M147 GND 443 161 GND NM L=1.8e-07 W=2.2e-07 $X=25110 $Y=32200 $D=0
M148 16 167 446 GND NM L=1.8e-07 W=4.4e-07 $X=25510 $Y=-12965 $D=0
M149 16 166 447 GND NM L=1.8e-07 W=4.4e-07 $X=25510 $Y=-9265 $D=0
M150 GND 486 164 GND NM L=1.8e-07 W=4.4e-07 $X=25930 $Y=-38865 $D=0
M151 GND 487 165 GND NM L=1.8e-07 W=4.4e-07 $X=25930 $Y=16635 $D=0
M152 454 420 449 GND NM L=1.8e-07 W=4.4e-07 $X=25940 $Y=-25915 $D=0
M153 455 421 450 GND NM L=1.8e-07 W=4.4e-07 $X=25940 $Y=3685 $D=0
M154 GND 456 162 GND NM L=1.8e-07 W=2.2e-07 $X=25970 $Y=-35045 $D=0
M155 GND 457 163 GND NM L=1.8e-07 W=2.2e-07 $X=25970 $Y=13035 $D=0
M156 1281 162 466 GND NM L=1.8e-07 W=4.4e-07 $X=26190 $Y=-22215 $D=0
M157 1282 163 467 GND NM L=1.8e-07 W=4.4e-07 $X=26190 $Y=-15 $D=0
M158 GND 158 1281 GND NM L=1.8e-07 W=4.4e-07 $X=26620 $Y=-22215 $D=0
M159 GND 159 1282 GND NM L=1.8e-07 W=4.4e-07 $X=26620 $Y=-15 $D=0
M160 GND 158 454 GND NM L=1.8e-07 W=4.4e-07 $X=26660 $Y=-25915 $D=0
M161 GND 159 455 GND NM L=1.8e-07 W=4.4e-07 $X=26660 $Y=3685 $D=0
M162 1283 164 GND GND NM L=1.8e-07 W=4.4e-07 $X=26730 $Y=-35165 $D=0
M163 1284 165 GND GND NM L=1.8e-07 W=4.4e-07 $X=26730 $Y=12935 $D=0
M164 458 12 GND GND NM L=1.8e-07 W=2.2e-07 $X=27140 $Y=-54210 $D=0
M165 459 12 GND GND NM L=1.8e-07 W=2.2e-07 $X=27140 $Y=-52410 $D=0
M166 460 12 GND GND NM L=1.8e-07 W=2.2e-07 $X=27140 $Y=-47590 $D=0
M167 461 12 GND GND NM L=1.8e-07 W=2.2e-07 $X=27140 $Y=-45790 $D=0
M168 462 53 GND GND NM L=1.8e-07 W=2.2e-07 $X=27140 $Y=23780 $D=0
M169 463 53 GND GND NM L=1.8e-07 W=2.2e-07 $X=27140 $Y=25580 $D=0
M170 464 53 GND GND NM L=1.8e-07 W=2.2e-07 $X=27140 $Y=30400 $D=0
M171 465 53 GND GND NM L=1.8e-07 W=2.2e-07 $X=27140 $Y=32200 $D=0
M172 456 170 1283 GND NM L=1.8e-07 W=4.4e-07 $X=27160 $Y=-35165 $D=0
M173 457 171 1284 GND NM L=1.8e-07 W=4.4e-07 $X=27160 $Y=12935 $D=0
M174 454 162 GND GND NM L=1.8e-07 W=4.4e-07 $X=27380 $Y=-25915 $D=0
M175 466 418 GND GND NM L=1.8e-07 W=2.2e-07 $X=27380 $Y=-22095 $D=0
M176 467 419 GND GND NM L=1.8e-07 W=2.2e-07 $X=27380 $Y=85 $D=0
M177 455 163 GND GND NM L=1.8e-07 W=4.4e-07 $X=27380 $Y=3685 $D=0
M178 468 193 166 GND NM L=1.8e-07 W=4.4e-07 $X=27450 $Y=-12965 $D=0
M179 469 190 166 GND NM L=1.8e-07 W=4.4e-07 $X=27560 $Y=-9265 $D=0
M180 GND 188 480 GND NM L=1.8e-07 W=4.4e-07 $X=27870 $Y=-38865 $D=0
M181 GND 189 481 GND NM L=1.8e-07 W=4.4e-07 $X=27870 $Y=16635 $D=0
M182 1285 188 GND GND NM L=1.8e-07 W=4.4e-07 $X=28590 $Y=-38865 $D=0
M183 1286 189 GND GND NM L=1.8e-07 W=4.4e-07 $X=28590 $Y=16635 $D=0
M184 486 186 1285 GND NM L=1.8e-07 W=4.4e-07 $X=29020 $Y=-38865 $D=0
M185 487 187 1286 GND NM L=1.8e-07 W=4.4e-07 $X=29020 $Y=16635 $D=0
M186 483 456 477 GND NM L=1.8e-07 W=4.4e-07 $X=29100 $Y=-35165 $D=0
M187 484 457 478 GND NM L=1.8e-07 W=4.4e-07 $X=29100 $Y=12935 $D=0
M188 175 12 11 GND NM L=1.8e-07 W=2.2e-07 $X=29160 $Y=-54210 $D=0
M189 182 12 9 GND NM L=1.8e-07 W=2.2e-07 $X=29160 $Y=-52410 $D=0
M190 168 12 7 GND NM L=1.8e-07 W=2.2e-07 $X=29160 $Y=-47590 $D=0
M191 244 12 8 GND NM L=1.8e-07 W=2.2e-07 $X=29160 $Y=-45790 $D=0
M192 245 53 65 GND NM L=1.8e-07 W=2.2e-07 $X=29160 $Y=23780 $D=0
M193 169 53 63 GND NM L=1.8e-07 W=2.2e-07 $X=29160 $Y=25580 $D=0
M194 183 53 73 GND NM L=1.8e-07 W=2.2e-07 $X=29160 $Y=30400 $D=0
M195 176 53 70 GND NM L=1.8e-07 W=2.2e-07 $X=29160 $Y=32200 $D=0
M196 473 449 GND GND NM L=1.8e-07 W=4.4e-07 $X=29360 $Y=-25915 $D=0
M197 471 466 GND GND NM L=1.8e-07 W=4.4e-07 $X=29360 $Y=-22215 $D=0
M198 472 467 GND GND NM L=1.8e-07 W=4.4e-07 $X=29360 $Y=-15 $D=0
M199 474 450 GND GND NM L=1.8e-07 W=4.4e-07 $X=29360 $Y=3685 $D=0
M200 476 193 167 GND NM L=1.8e-07 W=4.4e-07 $X=29390 $Y=-12965 $D=0
M201 475 190 167 GND NM L=1.8e-07 W=4.4e-07 $X=29510 $Y=-9265 $D=0
M202 480 175 486 GND NM L=1.8e-07 W=4.4e-07 $X=29740 $Y=-38865 $D=0
M203 481 176 487 GND NM L=1.8e-07 W=4.4e-07 $X=29740 $Y=16635 $D=0
M204 GND 164 483 GND NM L=1.8e-07 W=4.4e-07 $X=29820 $Y=-35165 $D=0
M205 GND 165 484 GND NM L=1.8e-07 W=4.4e-07 $X=29820 $Y=12935 $D=0
M206 GND 458 175 GND NM L=1.8e-07 W=2.2e-07 $X=29960 $Y=-54210 $D=0
M207 GND 459 182 GND NM L=1.8e-07 W=2.2e-07 $X=29960 $Y=-52410 $D=0
M208 GND 460 168 GND NM L=1.8e-07 W=2.2e-07 $X=29960 $Y=-47590 $D=0
M209 GND 461 244 GND NM L=1.8e-07 W=2.2e-07 $X=29960 $Y=-45790 $D=0
M210 GND 462 245 GND NM L=1.8e-07 W=2.2e-07 $X=29960 $Y=23780 $D=0
M211 GND 463 169 GND NM L=1.8e-07 W=2.2e-07 $X=29960 $Y=25580 $D=0
M212 GND 464 183 GND NM L=1.8e-07 W=2.2e-07 $X=29960 $Y=30400 $D=0
M213 GND 465 176 GND NM L=1.8e-07 W=2.2e-07 $X=29960 $Y=32200 $D=0
M214 GND 468 476 GND NM L=1.8e-07 W=4.4e-07 $X=30110 $Y=-12965 $D=0
M215 181 173 473 GND NM L=1.8e-07 W=4.4e-07 $X=30120 $Y=-25915 $D=0
M216 181 177 471 GND NM L=1.8e-07 W=4.4e-07 $X=30120 $Y=-22215 $D=0
M217 172 178 472 GND NM L=1.8e-07 W=4.4e-07 $X=30120 $Y=-15 $D=0
M218 172 174 474 GND NM L=1.8e-07 W=4.4e-07 $X=30120 $Y=3685 $D=0
M219 GND 469 475 GND NM L=1.8e-07 W=4.4e-07 $X=30310 $Y=-9265 $D=0
M220 GND 186 480 GND NM L=1.8e-07 W=4.4e-07 $X=30460 $Y=-38865 $D=0
M221 GND 187 481 GND NM L=1.8e-07 W=4.4e-07 $X=30460 $Y=16635 $D=0
M222 483 170 GND GND NM L=1.8e-07 W=4.4e-07 $X=30540 $Y=-35165 $D=0
M223 484 171 GND GND NM L=1.8e-07 W=4.4e-07 $X=30540 $Y=12935 $D=0
M224 468 181 GND GND NM L=1.8e-07 W=2.2e-07 $X=30870 $Y=-12865 $D=0
M225 1287 172 GND GND NM L=1.8e-07 W=4.4e-07 $X=31030 $Y=-9265 $D=0
M226 1288 186 GND GND NM L=1.8e-07 W=4.4e-07 $X=31180 $Y=-38865 $D=0
M227 1289 187 GND GND NM L=1.8e-07 W=4.4e-07 $X=31180 $Y=16635 $D=0
M228 469 181 1287 GND NM L=1.8e-07 W=4.4e-07 $X=31460 $Y=-9265 $D=0
M229 1290 188 1288 GND NM L=1.8e-07 W=4.4e-07 $X=31610 $Y=-38865 $D=0
M230 1291 189 1289 GND NM L=1.8e-07 W=4.4e-07 $X=31610 $Y=16635 $D=0
M231 GND 172 468 GND NM L=1.8e-07 W=2.2e-07 $X=31670 $Y=-12865 $D=0
M232 488 13 GND GND NM L=1.8e-07 W=2.2e-07 $X=31990 $Y=-54210 $D=0
M233 489 13 GND GND NM L=1.8e-07 W=2.2e-07 $X=31990 $Y=-52410 $D=0
M234 490 13 GND GND NM L=1.8e-07 W=2.2e-07 $X=31990 $Y=-47590 $D=0
M235 491 13 GND GND NM L=1.8e-07 W=2.2e-07 $X=31990 $Y=-45790 $D=0
M236 492 54 GND GND NM L=1.8e-07 W=2.2e-07 $X=31990 $Y=23780 $D=0
M237 493 54 GND GND NM L=1.8e-07 W=2.2e-07 $X=31990 $Y=25580 $D=0
M238 494 54 GND GND NM L=1.8e-07 W=2.2e-07 $X=31990 $Y=30400 $D=0
M239 495 54 GND GND NM L=1.8e-07 W=2.2e-07 $X=31990 $Y=32200 $D=0
M240 513 175 1290 GND NM L=1.8e-07 W=4.4e-07 $X=32040 $Y=-38865 $D=0
M241 514 176 1291 GND NM L=1.8e-07 W=4.4e-07 $X=32040 $Y=16635 $D=0
M242 496 203 173 GND NM L=1.8e-07 W=4.4e-07 $X=32060 $Y=-22215 $D=0
M243 497 204 174 GND NM L=1.8e-07 W=4.4e-07 $X=32060 $Y=-15 $D=0
M244 498 199 173 GND NM L=1.8e-07 W=4.4e-07 $X=32170 $Y=-25915 $D=0
M245 499 200 174 GND NM L=1.8e-07 W=4.4e-07 $X=32170 $Y=3685 $D=0
M246 184 477 GND GND NM L=1.8e-07 W=2.2e-07 $X=32520 $Y=-35045 $D=0
M247 185 478 GND GND NM L=1.8e-07 W=2.2e-07 $X=32520 $Y=13035 $D=0
M248 506 486 513 GND NM L=1.8e-07 W=4.4e-07 $X=32760 $Y=-38865 $D=0
M249 507 487 514 GND NM L=1.8e-07 W=4.4e-07 $X=32760 $Y=16635 $D=0
M250 512 469 501 GND NM L=1.8e-07 W=4.4e-07 $X=33400 $Y=-9265 $D=0
M251 GND 175 506 GND NM L=1.8e-07 W=4.4e-07 $X=33480 $Y=-38865 $D=0