* File: SRAM_8_16.pex.netlist.pex
* Created: Sun Jan 15 23:16:33 2023
* Program "Calibre xRC"
* Version "v2015.2_36.27"
* Nominal Temperature: 27C
* Circuit Temperature: 27C
* 
.subckt PM_SRAM_8_16_X487.noxref_5 1 2
r1 1 2 2.22443
.ends

.subckt PM_SRAM_8_16_X488.noxref_5 1 2
r0 1 2 2.22443
.ends

.subckt PM_SRAM_8_16_X489.noxref_5 1 2
r0 1 2 2.22443
.ends

.subckt PM_SRAM_8_16_X490.noxref_5 1 2
r0 1 2 2.22443
.ends

.subckt PM_SRAM_8_16_X491.noxref_5 1 2
r0 1 2 2.22443
.ends

.subckt PM_SRAM_8_16_X492.noxref_5 1 2
r0 1 2 2.22443
.ends

.subckt PM_SRAM_8_16_X493.noxref_5 1 2
r0 1 2 2.22443
.ends

.subckt PM_SRAM_8_16_X494.noxref_5 1 2
r0 1 2 2.22443
.ends

.subckt PM_SRAM_8_16_X495.noxref_5 1 2
r0 1 2 2.22443
.ends

.subckt PM_SRAM_8_16_XI34.XI6.NET25 1 2
r0 1 2 4.02273
.ends

.subckt PM_SRAM_8_16_XI34.XI7.NET25 1 2
r0 1 2 4.02273
.ends

.subckt PM_SRAM_8_16_XI34.XI5.NET25 1 2
r0 1 2 4.02273
.ends

.subckt PM_SRAM_8_16_XI34.XI8.NET25 1 2
r0 1 2 4.02273
.ends

.subckt PM_SRAM_8_16_XI34.XI3.NET25 1 2
r0 1 2 4.02273
.ends

.subckt PM_SRAM_8_16_XI34.XI4.NET25 1 2
r0 1 2 4.02273
.ends

.subckt PM_SRAM_8_16_XI34.XI1.NET25 1 2
r0 1 2 4.02273
.ends

.subckt PM_SRAM_8_16_XI34.XI0.NET25 1 2
r1 1 2 4.02273
.ends

.subckt PM_SRAM_8_16_NET078 3 6 7 15 21 23 32 38 40 49 50 54 64 69 70 77 78
c175 78 0 0.0232765f
c176 77 0 0.166096f
c177 70 0 0.235411f
c178 69 0 0.0246452f
c179 64 0 0.018828f
c180 54 0 0.955995f
c181 52 0 0.0224632f
c182 50 0 0.0566466f
c183 49 0 0.23029f
c184 40 0 0.572808f
c185 38 0 0.44113f
c186 32 0 0.0332146f
c187 21 0 0.111535f
c188 15 0 0.0315839f
c189 7 0 0.0333155f
c190 6 0 0.0302026f
r191 75 78 0.0454393
r192 75 77 0.0458498
r193 75 76 4.8
r194 69 70 4.8
r195 64 65 4.8
r196 62 69 0.0944211
r197 61 62 6.5
r198 58 64 6.5
r199 55 70 1.26647
r200 55 65 0.131368
r201 54 55 5.9
r202 52 54 5.53923
r203 50 76 0.131368
r204 49 50 5.9
r205 47 52 0.0435808
r206 47 49 0.838705
r207 40 61 6.63628
r208 38 58 6.63628
r209 32 40 212.709
r210 22 23 7.01427
r211 21 78 0.635556
r212 21 22 6.6
r213 15 58 9.72026
r214 7 61 9.72026
r215 6 38 187.944
r216 2 3 4.80477
r217 1 77 0.904222
r218 1 2 8.9
.ends

.subckt PM_SRAM_8_16_NET085 3 6 10 11 19 25 27 40 42 49 52 55 58 66 68 76 81 82
c228 82 0 0.0237234f
c229 81 0 0.142229f
c230 76 0 0.126165f
c231 68 0 0.018828f
c232 66 0 0.0237126f
c233 58 0 0.839541f
c234 56 0 0.0224632f
c235 55 0 0.467505f
c236 52 0 0.0539064f
c237 49 0 0.109251f
c238 42 0 0.0846628f
c239 40 0 0.0818193f
c240 25 0 0.0988581f
c241 19 0 0.0315839f
c242 11 0 0.0332421f
c243 10 0 0.389636f
c244 6 0 0.51717f
r245 79 82 0.0454393
r246 79 81 0.0458498
r247 79 80 4.8
r248 75 76 4.8
r249 68 69 4.8
r250 66 75 0.0944211
r251 65 66 6.5
r252 62 68 6.5
r253 59 76 1.26647
r254 59 69 0.131368
r255 58 59 5.9
r256 56 58 5.13486
r257 55 56 0.0435808
r258 54 55 2.58324
r259 52 80 0.131368
r260 51 52 5.9
r261 49 54 0.0435808
r262 49 51 0.365163
r263 42 65 6.5946
r264 40 62 6.5946
r265 26 27 7.01427
r266 25 82 0.635556
r267 25 26 6.6
r268 19 62 9.76193
r269 11 65 9.76193
r270 10 40 187.944
r271 6 42 212.709
r272 2 3 4.80477
r273 1 81 0.904222
r274 1 2 8.9
.ends

.subckt PM_SRAM_8_16_NET084 1 2 10 18 24 26 39 40 49 52 55 56 58 67 71 76 77 84
+ 85
c220 85 0 0.0237234f
c221 84 0 0.142209f
c222 77 0 0.235411f
c223 76 0 0.0246452f
c224 71 0 0.018828f
c225 58 0 0.806511f
c226 56 0 0.0110661f
c227 55 0 0.318132f
c228 52 0 0.0539047f
c229 49 0 0.136315f
c230 40 0 0.572808f
c231 39 0 0.44113f
c232 24 0 0.0988581f
c233 18 0 0.0315839f
c234 10 0 0.0333155f
c235 2 0 0.0322547f
c236 1 0 0.0282731f
r237 82 85 0.0454393
r238 82 84 0.0458498
r239 82 83 4.8
r240 76 77 4.8
r241 71 72 4.8
r242 66 76 0.0944211
r243 65 66 6.5
r244 62 71 6.5
r245 59 77 1.26647
r246 59 72 0.131368
r247 58 59 5.9
r248 56 58 5.01992
r249 55 56 0.0448948
r250 54 55 3.68411
r251 52 83 0.131368
r252 51 52 5.9
r253 49 54 0.0448948
r254 49 51 0.500637
r255 44 67 4.78698
r256 43 84 0.903933
r257 43 44 8.9
r258 40 65 6.63628
r259 39 62 6.63628
r260 25 26 7.01427
r261 24 85 0.635556
r262 24 25 6.6
r263 18 62 9.72026
r264 10 65 9.72026
r265 2 40 212.709
r266 1 39 187.944
.ends

.subckt PM_SRAM_8_16_NET083 1 2 10 18 24 26 38 40 49 52 55 56 58 66 67 71 79 84
+ 85
c221 85 0 0.0237234f
c222 84 0 0.142207f
c223 79 0 0.126165f
c224 71 0 0.018828f
c225 66 0 0.0237126f
c226 58 0 0.767777f
c227 56 0 0.00685068f
c228 55 0 0.217502f
c229 52 0 0.0539044f
c230 49 0 0.162947f
c231 40 0 0.0846628f
c232 38 0 0.0818193f
c233 24 0 0.0988581f
c234 18 0 0.0315839f
c235 10 0 0.0332421f
c236 2 0 0.51621f
c237 1 0 0.387706f
r238 82 85 0.0454393
r239 82 84 0.0458498
r240 82 83 4.8
r241 78 79 4.8
r242 71 72 4.8
r243 66 78 0.0944211
r244 65 66 6.5
r245 62 71 6.5
r246 59 79 1.26647
r247 59 72 0.131368
r248 58 59 5.9
r249 56 58 4.90497
r250 55 56 0.0448948
r251 54 55 1.84554
r252 52 83 0.131368
r253 51 52 5.9
r254 49 54 0.0448948
r255 49 51 0.615584
r256 44 67 4.78698
r257 43 84 0.903933
r258 43 44 8.9
r259 40 65 6.5946
r260 38 62 6.5946
r261 25 26 7.01427
r262 24 85 0.635556
r263 24 25 6.6
r264 18 62 9.76193
r265 10 65 9.76193
r266 2 40 212.709
r267 1 38 187.944
.ends

.subckt PM_SRAM_8_16_NET080 2 3 6 7 15 23 29 31 45 46 53 56 59 60 62 72 77 78 85
+ 86
c206 86 0 0.0237234f
c207 85 0 0.131416f
c208 78 0 0.235411f
c209 77 0 0.0246452f
c210 72 0 0.018828f
c211 62 0 0.756903f
c212 60 0 0.0117497f
c213 59 0 0.0370822f
c214 56 0 0.0539044f
c215 53 0 0.172241f
c216 46 0 0.572808f
c217 45 0 0.44113f
c218 29 0 0.0988581f
c219 23 0 0.0315839f
c220 15 0 0.0333155f
c221 7 0 0.0322547f
c222 6 0 0.0282731f
r223 83 86 0.0454393
r224 83 85 0.0458498
r225 83 84 4.8
r226 77 78 4.8
r227 72 73 4.8
r228 70 77 0.0944211
r229 69 70 6.5
r230 66 72 6.5
r231 63 78 1.26647
r232 63 73 0.131368
r233 62 63 5.9
r234 60 62 4.83928
r235 59 60 0.0448948
r236 58 59 0.363536
r237 56 84 0.131368
r238 55 56 5.9
r239 53 58 0.0448948
r240 53 55 0.681268
r241 46 69 6.63628
r242 45 66 6.63628
r243 30 31 7.01427
r244 29 86 0.635556
r245 29 30 6.6
r246 23 66 9.72026
r247 15 69 9.72026
r248 7 46 212.709
r249 6 45 187.944
r250 2 3 4.80477
r251 1 85 0.904222
r252 1 2 8.9
.ends

.subckt PM_SRAM_8_16_NET079 3 6 7 15 23 29 31 44 46 53 56 59 60 62 70 72 80 85
+ 86
c218 86 0 0.0237234f
c219 85 0 0.142228f
c220 80 0 0.126165f
c221 72 0 0.018828f
c222 70 0 0.0237126f
c223 62 0 0.744132f
c224 60 0 0.0193593f
c225 59 0 0.136953f
c226 56 0 0.0539044f
c227 53 0 0.178041f
c228 46 0 0.0846628f
c229 44 0 0.0818193f
c230 29 0 0.0988581f
c231 23 0 0.0315839f
c232 15 0 0.0332421f
c233 7 0 0.51621f
c234 6 0 0.387706f
r235 83 86 0.0454393
r236 83 85 0.0458498
r237 83 84 4.8
r238 79 80 4.8
r239 72 73 4.8
r240 70 79 0.0944211
r241 69 70 6.5
r242 66 72 6.5
r243 63 80 1.26647
r244 63 73 0.131368
r245 62 63 5.9
r246 60 62 4.72434
r247 58 60 0.0448948
r248 58 59 1.26332
r249 56 84 0.131368
r250 55 56 5.9
r251 53 59 0.0448948
r252 53 55 0.796216
r253 46 69 6.5946
r254 44 66 6.5946
r255 30 31 7.01427
r256 29 86 0.635556
r257 29 30 6.6
r258 23 66 9.76193
r259 15 69 9.76193
r260 7 46 212.709
r261 6 44 187.944
r262 2 3 4.80477
r263 1 85 0.904222
r264 1 2 8.9
.ends

.subckt PM_SRAM_8_16_NET081 3 6 7 15 23 29 31 44 46 53 56 59 60 62 70 72 80 85
+ 86
c220 86 0 0.0237234f
c221 85 0 0.137279f
c222 80 0 0.126336f
c223 72 0 0.018828f
c224 70 0 0.0237417f
c225 62 0 0.744132f
c226 60 0 0.0191845f
c227 59 0 0.0200968f
c228 56 0 0.0539044f
c229 53 0 0.179507f
c230 46 0 0.0846308f
c231 44 0 0.0818193f
c232 29 0 0.0988581f
c233 23 0 0.0315839f
c234 15 0 0.0332421f
c235 7 0 0.51621f
c236 6 0 0.387706f
r237 83 86 0.0454393
r238 83 85 0.0458498
r239 83 84 4.8
r240 79 80 4.8
r241 72 73 4.8
r242 70 79 0.0944211
r243 69 70 6.5
r244 66 72 6.5
r245 63 80 1.26647
r246 63 73 0.131368
r247 62 63 5.9
r248 60 62 4.72434
r249 59 60 0.0448948
r250 58 59 0.18525
r251 56 84 0.131368
r252 55 56 5.9
r253 53 58 0.0448948
r254 53 55 0.796216
r255 46 69 6.5946
r256 44 66 6.5946
r257 30 31 7.01427
r258 29 86 0.635556
r259 29 30 6.6
r260 23 66 9.76193
r261 15 69 9.76193
r262 7 46 212.709
r263 6 44 187.944
r264 2 3 4.80477
r265 1 85 0.904222
r266 1 2 8.9
.ends

.subckt PM_SRAM_8_16_NET082 3 6 7 15 23 29 31 45 46 53 56 59 60 62 72 77 78 85
+ 86
c210 86 0 0.0237234f
c211 85 0 0.137279f
c212 78 0 0.235411f
c213 77 0 0.0246452f
c214 72 0 0.018828f
c215 62 0 0.744132f
c216 60 0 0.0114962f
c217 59 0 0.148896f
c218 56 0 0.0539044f
c219 53 0 0.189215f
c220 46 0 0.572808f
c221 45 0 0.44113f
c222 29 0 0.0988581f
c223 23 0 0.0315839f
c224 15 0 0.0333155f
c225 7 0 0.0322547f
c226 6 0 0.0282731f
r227 83 86 0.0454393
r228 83 85 0.0458498
r229 83 84 4.8
r230 77 78 4.8
r231 72 73 4.8
r232 70 77 0.0944211
r233 69 70 6.5
r234 66 72 6.5
r235 63 78 1.26647
r236 63 73 0.131368
r237 62 63 5.9
r238 60 62 4.72434
r239 59 60 0.0448948
r240 58 59 2.02382
r241 56 84 0.131368
r242 55 56 5.9
r243 53 58 0.0448948
r244 53 55 0.796216
r245 46 69 6.63628
r246 45 66 6.63628
r247 30 31 7.01427
r248 29 86 0.635556
r249 29 30 6.6
r250 23 66 9.72026
r251 15 69 9.72026
r252 7 46 212.709
r253 6 45 187.944
r254 2 3 4.80477
r255 1 85 0.904222
r256 1 2 8.9
.ends

.subckt PM_SRAM_8_16_A2 1 4 8 12 16 20 21 22 23 24 67 68 69 70 71 72 73 74 77 89
+ 91 92 96 99 100 104 107 108 112 115 116 120 123 124 129 130 134 140 146 152
+ 172
c284 152 0 0.117547f
c285 146 0 0.117547f
c286 140 0 0.117547f
c287 134 0 0.117547f
c288 130 0 0.0725186f
c289 129 0 0.0914089f
c290 124 0 0.0210471f
c291 123 0 0.060813f
c292 120 0 0.232225f
c293 116 0 0.0211184f
c294 115 0 0.0608331f
c295 112 0 0.217101f
c296 108 0 0.0212016f
c297 107 0 0.0608103f
c298 104 0 0.265926f
c299 100 0 0.0212016f
c300 99 0 0.0608304f
c301 96 0 0.259663f
c302 92 0 0.0256208f
c303 91 0 0.0252775f
c304 89 0 0.0159567f
c305 77 0 1.00751f
c306 74 0 0.0519623f
c307 73 0 0.067379f
c308 72 0 0.0515475f
c309 71 0 0.0668984f
c310 70 0 0.0519633f
c311 69 0 0.067378f
c312 68 0 0.0516073f
c313 67 0 0.067379f
c314 24 0 0.0282423f
c315 23 0 0.0282423f
c316 22 0 0.0282423f
c317 21 0 0.0282423f
c318 20 0 0.229361f
c319 16 0 0.0564731f
c320 12 0 0.0561578f
c321 8 0 0.0569019f
c322 4 0 0.0560701f
c323 1 0 0.0362374f
r324 150 152 6.66946
r325 144 146 6.66946
r326 138 140 6.66946
r327 132 134 6.66946
r328 127 130 6.66679
r329 127 129 6.70178
r330 124 150 6.5
r331 123 124 4.8
r332 119 123 0.641447
r333 119 120 4.8
r334 116 144 6.5
r335 115 116 4.8
r336 111 115 0.641447
r337 111 112 4.8
r338 108 138 6.5
r339 107 108 4.8
r340 103 107 0.641447
r341 103 104 4.8
r342 100 132 6.5
r343 99 100 4.8
r344 95 99 0.641447
r345 95 96 4.8
r346 92 172 0.104889
r347 92 127 6.5
r348 91 92 4.8
r349 89 91 0.232153
r350 87 120 0.812842
r351 86 87 4.8
r352 84 112 0.812842
r353 83 86 0.743053
r354 83 84 4.8
r355 81 104 0.812842
r356 80 83 0.743053
r357 80 81 4.8
r358 78 96 0.812842
r359 77 80 0.743053
r360 77 78 4.8
r361 75 89 0.0435808
r362 75 77 2.86568
r363 73 150 2.17756
r364 73 74 24.7644
r365 71 144 2.17756
r366 71 72 24.7644
r367 69 138 2.17756
r368 69 70 24.7644
r369 67 132 2.17756
r370 67 68 24.7644
r371 24 152 63.2378
r372 23 146 63.2378
r373 22 140 63.2378
r374 21 134 63.2378
r375 20 130 87.3389
r376 16 74 4.44748
r377 12 72 4.44748
r378 8 70 4.44748
r379 4 68 4.44748
r380 1 129 40.6844
.ends

.subckt PM_SRAM_8_16_A1 1 4 7 10 16 17 18 19 31 33 49 50 51 52 61 73 75 76 78 81
+ 83 86 88 91 93 96 100 101 105 106 110 111 115 116 121 122 125 130 135 140 160
c295 140 0 0.0692743f
c296 135 0 0.0692743f
c297 130 0 0.0692743f
c298 125 0 0.0692743f
c299 122 0 0.0699865f
c300 121 0 0.0886551f
c301 116 0 0.0110936f
c302 115 0 0.00818951f
c303 111 0 0.0110936f
c304 110 0 0.00543534f
c305 106 0 0.0110936f
c306 105 0 0.00543534f
c307 101 0 0.0110936f
c308 100 0 0.00543534f
c309 96 0 0.14355f
c310 93 0 0.0432272f
c311 91 0 0.179234f
c312 88 0 0.0430709f
c313 86 0 0.163677f
c314 83 0 0.0430709f
c315 81 0 0.202018f
c316 78 0 0.0430709f
c317 76 0 0.0274492f
c318 75 0 0.0147761f
c319 61 0 0.425107f
c320 52 0 0.0673421f
c321 51 0 0.0673421f
c322 50 0 0.0673421f
c323 49 0 0.0673421f
c324 33 0 0.0637652f
c325 31 0 0.0621806f
c326 19 0 0.0279053f
c327 18 0 0.0279053f
c328 17 0 0.0279053f
c329 16 0 0.0279053f
c330 10 0 0.224486f
c331 7 0 0.0598584f
c332 4 0 0.0637652f
c333 1 0 0.0351716f
r334 138 140 2.2716
r335 133 135 2.2716
r336 128 130 2.2716
r337 123 125 2.2716
r338 119 122 6.66679
r339 119 121 6.70178
r340 116 140 6.5
r341 115 116 4.8
r342 113 115 0.0494684
r343 111 135 6.5
r344 110 111 4.8
r345 108 110 0.0494684
r346 106 130 6.5
r347 105 106 4.8
r348 103 105 0.0494684
r349 101 125 6.5
r350 100 101 4.8
r351 98 100 0.0494684
r352 95 96 4.8
r353 93 113 0.0435808
r354 93 95 0.497558
r355 90 91 4.8
r356 88 108 0.0435808
r357 88 90 0.497558
r358 85 86 4.8
r359 83 103 0.0435808
r360 83 85 0.497558
r361 80 81 4.8
r362 78 98 0.0435808
r363 78 80 0.497558
r364 76 160 0.0607579
r365 76 119 6.5
r366 75 76 4.8
r367 73 75 0.0966789
r368 71 96 0.677368
r369 70 71 4.8
r370 68 91 0.677368
r371 67 70 0.743053
r372 67 68 4.8
r373 65 86 0.677368
r374 64 67 2.22916
r375 64 65 4.8
r376 62 81 0.677368
r377 61 64 0.743053
r378 61 62 4.8
r379 59 73 0.0435808
r380 59 61 1.10042
r381 56 140 4.67462
r382 55 135 4.67462
r383 54 130 4.67462
r384 53 125 4.67462
r385 52 138 3.77458
r386 51 133 3.77458
r387 50 128 3.77458
r388 49 123 3.77458
r389 33 55 23.4378
r390 31 53 23.4378
r391 19 52 40.6844
r392 18 51 40.6844
r393 17 50 40.6844
r394 16 49 40.6844
r395 10 122 87.3389
r396 7 56 23.4378
r397 4 54 23.4378
r398 1 121 40.6844
.ends

.subckt PM_SRAM_8_16_A0 1 4 7 10 11 12 13 21 37 38 65 67 68 69 70 72 87 90 95 98
+ 103 106 111 114 120 121 124 125 126 129 130 131 134 135 136 139 140 141
c260 141 0 0.0613014f
c261 140 0 0.0247522f
c262 139 0 0.0147866f
c263 136 0 0.0593437f
c264 135 0 0.0235915f
c265 134 0 0.0147866f
c266 131 0 0.0593437f
c267 130 0 0.0235915f
c268 129 0 0.0147866f
c269 126 0 0.0593437f
c270 125 0 0.0235915f
c271 124 0 0.0147877f
c272 121 0 0.0707225f
c273 120 0 0.0879742f
c274 114 0 0.0586074f
c275 111 0 0.193558f
c276 106 0 0.0377902f
c277 103 0 0.159382f
c278 98 0 0.0377902f
c279 95 0 0.145654f
c280 90 0 0.0250751f
c281 87 0 0.104739f
c282 72 0 0.506069f
c283 70 0 0.0206316f
c284 69 0 0.025509f
c285 65 0 0.0333744f
c286 38 0 0.136155f
c287 37 0 0.135059f
c288 21 0 0.233786f
c289 13 0 0.0295335f
c290 12 0 0.0285167f
c291 11 0 0.0285167f
c292 10 0 0.0285845f
c293 7 0 0.140713f
c294 4 0 0.135201f
c295 1 0 0.0361971f
r296 138 141 6.61346
r297 138 140 6.65136
r298 138 139 6.5
r299 133 136 6.61346
r300 133 135 6.65136
r301 133 134 6.5
r302 128 131 6.61346
r303 128 130 6.65136
r304 128 129 6.5
r305 123 126 6.61346
r306 123 125 6.65136
r307 123 124 6.5
r308 118 121 6.66679
r309 118 120 6.70178
r310 114 139 4.8
r311 110 114 0.407447
r312 110 111 4.8
r313 106 134 4.8
r314 102 106 0.407447
r315 102 103 4.8
r316 98 129 4.8
r317 94 98 0.407447
r318 94 95 4.8
r319 90 124 4.8
r320 86 90 0.407447
r321 86 87 4.8
r322 83 111 0.541895
r323 82 83 4.8
r324 80 103 0.541895
r325 79 82 1.48611
r326 79 80 4.8
r327 77 95 0.541895
r328 76 79 1.48611
r329 76 77 4.8
r330 73 118 6.5
r331 72 76 1.66468
r332 72 73 4.8
r333 70 87 0.5031
r334 69 70 0.0435808
r335 68 73 0.0217904
r336 68 69 0.100579
r337 65 73 0.0217904
r338 65 67 0.0420789
r339 38 131 56.6044
r340 37 126 56.6044
r341 21 121 87.3389
r342 13 140 11.0556
r343 12 135 11.0556
r344 11 130 11.0556
r345 10 125 11.0556
r346 7 141 56.6044
r347 4 136 56.6044
r348 1 120 40.6844
.ends

.subckt PM_SRAM_8_16_XI16.INVADD2 3 6 10 11 12 13 22 33 34 35 50 51 52 53 54 55
+ 56 57 66 69 71 82 83 87 90 91 95 98 99 103 104 110 111 118 124 130 136 165 166
c262 166 0 0.0241896f
c263 165 0 0.0985092f
c264 136 0 0.117547f
c265 130 0 0.117547f
c266 124 0 0.117547f
c267 118 0 0.121579f
c268 111 0 0.0890427f
c269 110 0 0.0230236f
c270 104 0 0.0212018f
c271 103 0 0.0577425f
c272 99 0 0.0212016f
c273 98 0 0.0608103f
c274 95 0 0.111088f
c275 91 0 0.0213844f
c276 90 0 0.0527126f
c277 87 0 0.0941122f
c278 83 0 0.0275102f
c279 82 0 0.0853158f
c280 71 0 0.194925f
c281 69 0 0.0172813f
c282 66 0 0.0836255f
c283 57 0 0.0519633f
c284 56 0 0.067378f
c285 55 0 0.0518015f
c286 54 0 0.067378f
c287 53 0 0.0516445f
c288 52 0 0.0672188f
c289 51 0 0.0519622f
c290 50 0 0.0681127f
c291 35 0 0.0565307f
c292 34 0 0.056902f
c293 33 0 0.0565996f
c294 22 0 0.0282423f
c295 13 0 0.0282423f
c296 12 0 0.0282423f
c297 11 0 0.0274388f
c298 6 0 0.0569019f
r299 134 136 6.66946
r300 128 130 6.66946
r301 122 124 6.66946
r302 116 118 6.66946
r303 110 113 0.0736895
r304 110 111 4.8
r305 108 166 0.0454393
r306 108 165 0.0458498
r307 107 108 4.8
r308 104 122 6.5
r309 103 104 4.8
r310 101 113 0.00458085
r311 101 103 0.602653
r312 99 134 6.5
r313 98 99 4.8
r314 94 98 0.641447
r315 94 95 4.8
r316 91 128 6.5
r317 90 91 4.8
r318 86 90 0.641447
r319 86 87 4.8
r320 83 116 6.5
r321 82 83 4.8
r322 80 107 0.0217904
r323 80 82 1.00907
r324 78 95 0.406421
r325 77 78 4.8
r326 75 87 0.406421
r327 74 77 0.743053
r328 74 75 4.8
r329 72 111 0.406421
r330 71 74 0.816947
r331 71 72 4.8
r332 69 107 0.0217904
r333 69 71 0.630363
r334 66 166 0.423511
r335 66 67 6.6
r336 56 134 2.17756
r337 56 57 24.7644
r338 54 128 2.17756
r339 54 55 24.7644
r340 52 122 2.17756
r341 52 53 24.7644
r342 50 116 2.17756
r343 50 51 24.7644
r344 35 55 4.44748
r345 34 53 4.44748
r346 33 51 4.44748
r347 22 124 63.2378
r348 13 136 63.2378
r349 12 130 63.2378
r350 11 118 63.2378
r351 10 67 6.99568
r352 6 57 4.44748
r353 2 3 4.80477
r354 1 165 0.52
r355 1 2 8.9
.ends

.subckt PM_SRAM_8_16_XI16.INVADD0 2 3 6 9 12 13 14 21 33 34 62 68 71 73 74 76 81
+ 86 91 98 99 100 103 104 105 108 109 110 113 114 115 116 131 132
c275 132 0 0.0135452f
c276 131 0 0.109531f
c277 115 0 0.0593437f
c278 114 0 0.0235915f
c279 113 0 0.0147866f
c280 110 0 0.0593437f
c281 109 0 0.0235915f
c282 108 0 0.0147866f
c283 105 0 0.0593437f
c284 104 0 0.0235915f
c285 103 0 0.0147866f
c286 100 0 0.0593437f
c287 99 0 0.0235915f
c288 98 0 0.0147866f
c289 95 0 0.00463286f
c290 94 0 0.00463286f
c291 91 0 0.0589699f
c292 89 0 0.0197513f
c293 86 0 0.0589847f
c294 81 0 0.0589847f
c295 76 0 0.0375053f
c296 74 0 0.00627331f
c297 73 0 0.231724f
c298 71 0 0.207473f
c299 68 0 0.135694f
c300 34 0 0.136765f
c301 33 0 0.136765f
c302 21 0 0.0285167f
c303 14 0 0.0285167f
c304 13 0 0.0285167f
c305 12 0 0.0285167f
c306 9 0 0.136765f
c307 6 0 0.136765f
r308 112 115 6.61346
r309 112 114 6.65136
r310 112 113 6.5
r311 107 110 6.61346
r312 107 109 6.65136
r313 107 108 6.5
r314 102 105 6.61346
r315 102 104 6.65136
r316 102 103 6.5
r317 97 100 6.61346
r318 97 99 6.65136
r319 97 98 6.5
r320 91 113 4.8
r321 89 91 0.504126
r322 86 108 4.8
r323 84 95 0.00858359
r324 84 86 0.504126
r325 81 103 4.8
r326 79 94 0.00858359
r327 79 81 0.504126
r328 76 98 4.8
r329 74 76 0.504126
r330 73 89 0.0435808
r331 72 95 0.0330287
r332 72 73 1.40811
r333 71 95 0.0330287
r334 70 94 0.0330287
r335 70 71 1.40811
r336 69 132 0.0454393
r337 69 131 0.0458498
r338 68 69 4.8
r339 66 94 0.0330287
r340 66 68 0.985058
r341 65 74 0.0435808
r342 65 68 0.423047
r343 63 116 6.99568
r344 62 132 0.0421778
r345 62 63 6.6
r346 34 105 56.6044
r347 33 100 56.6044
r348 21 99 11.0556
r349 14 114 11.0556
r350 13 109 11.0556
r351 12 104 11.0556
r352 9 115 56.6044
r353 6 110 56.6044
r354 2 3 4.80477
r355 1 131 0.901333
r356 1 2 8.9
.ends

.subckt PM_SRAM_8_16_XI16.INVADD1 2 3 6 9 12 15 21 22 23 24 34 46 47 48 49 60 61
+ 65 77 78 79 82 84 87 89 92 96 97 101 102 106 107 110 112 113 118 123 128 133
+ 162 163
c291 163 0 0.0210717f
c292 162 0 0.100835f
c293 133 0 0.0692743f
c294 128 0 0.0692743f
c295 123 0 0.0707852f
c296 118 0 0.0692743f
c297 113 0 0.0100941f
c298 112 0 0.00474729f
c299 110 0 0.0188688f
c300 107 0 0.0110936f
c301 106 0 0.00543534f
c302 102 0 0.0110936f
c303 101 0 0.00543534f
c304 97 0 0.0110936f
c305 96 0 0.00842926f
c306 92 0 0.0609719f
c307 89 0 0.0430709f
c308 87 0 0.0822468f
c309 84 0 0.0430709f
c310 82 0 0.0679157f
c311 79 0 0.0542432f
c312 78 0 0.00727376f
c313 77 0 0.0615594f
c314 65 0 0.3041f
c315 61 0 9.86259e-20
c316 60 0 0.0282237f
c317 49 0 0.0673421f
c318 48 0 0.0673421f
c319 47 0 0.0673421f
c320 46 0 0.0673421f
c321 34 0 0.0637652f
c322 24 0 0.0279053f
c323 23 0 0.0279053f
c324 22 0 0.0279053f
c325 21 0 0.0279053f
c326 12 0 0.0637652f
c327 9 0 0.0637652f
c328 6 0 0.0623846f
r329 131 133 2.2716
r330 126 128 2.2716
r331 121 123 2.2716
r332 116 118 2.2716
r333 113 123 6.5
r334 112 115 0.0443514
r335 112 113 4.8
r336 110 115 0.225643
r337 107 133 6.5
r338 106 107 4.8
r339 104 106 0.0494684
r340 102 128 6.5
r341 101 102 4.8
r342 99 101 0.0494684
r343 97 118 6.5
r344 96 97 4.8
r345 94 96 0.0494684
r346 91 92 4.8
r347 89 104 0.0435808
r348 89 91 0.497558
r349 86 87 4.8
r350 84 99 0.0435808
r351 84 86 0.497558
r352 81 82 4.8
r353 79 110 0.0448948
r354 79 81 0.518084
r355 77 94 0.0435808
r356 77 78 0.729711
r357 75 92 0.270947
r358 74 75 4.8
r359 72 87 0.270947
r360 71 74 0.743053
r361 71 72 4.8
r362 69 82 0.270947
r363 68 71 1.89663
r364 68 69 4.8
r365 66 163 0.0454393
r366 66 162 0.0458498
r367 65 68 0.831316
r368 65 66 4.8
r369 63 78 0.0435808
r370 63 65 0.205468
r371 60 163 0.232844
r372 60 61 6.6
r373 53 133 4.67462
r374 52 128 4.67462
r375 51 123 4.67462
r376 50 118 4.67462
r377 49 131 3.77458
r378 48 126 3.77458
r379 47 121 3.77458
r380 46 116 3.77458
r381 34 51 23.4378
r382 24 49 40.6844
r383 23 48 40.6844
r384 22 47 40.6844
r385 21 46 40.6844
r386 15 61 6.99568
r387 12 53 23.4378
r388 9 52 23.4378
r389 6 50 23.4378
r390 2 3 4.80477
r391 1 162 0.710667
r392 1 2 8.9
.ends

.subckt PM_SRAM_8_16_NET155 1 7 11 16 20 25 31 32 36 39 40 44 45 50 51 52 54 56
c100 51 0 0.061043f
c101 50 0 0.0612394f
c102 45 0 0.0238796f
c103 44 0 0.131182f
c104 42 0 0.0261338f
c105 40 0 0.0110824f
c106 39 0 0.392586f
c107 36 0 0.0029054f
c108 32 0 0.00887936f
c109 31 0 0.042595f
c110 25 0 0.0754973f
c111 20 0 0.0659611f
c112 19 0 0.012038f
c113 16 0 0.303576f
c114 11 0 0.0316317f
c115 1 0 0.0566346f
r116 59 63 0.000205263
r117 58 59 4.45
r118 56 58 1.59566
r119 48 51 6.69732
r120 48 50 6.7312
r121 45 48 6.5
r122 44 45 4.8
r123 42 44 0.665258
r124 40 63 0.0151895
r125 39 40 4.8
r126 37 42 0.0435808
r127 37 39 1.26976
r128 33 36 0.0330287
r129 32 63 0.0234935
r130 32 33 0.369652
r131 30 36 0.00858359
r132 30 31 0.464609
r133 28 54 7.03285
r134 27 28 6.6
r135 25 31 0.0435808
r136 25 27 0.555835
r137 23 52 7.18023
r138 22 23 6.6
r139 20 36 0.0330287
r140 20 22 0.555835
r141 18 19 4.86444
r142 16 18 4.44748
r143 16 51 150.356
r144 11 50 31.84
r145 7 23 7.22012
r146 1 19 4.44748
.ends

.subckt PM_SRAM_8_16_NET149 1 9 12 13 19 24 28 33 39 40 44 47 48 50 54 59 60 61
c104 60 0 0.061213f
c105 59 0 0.0612394f
c106 54 0 0.00917657f
c107 50 0 0.0155615f
c108 48 0 0.0239199f
c109 47 0 0.129942f
c110 44 0 0.0029054f
c111 40 0 0.00887969f
c112 39 0 0.0425166f
c113 33 0 0.0754836f
c114 28 0 0.053642f
c115 27 0 0.012157f
c116 24 0 0.299854f
c117 19 0 0.0311831f
c118 1 0 0.0566346f
r119 57 60 6.69732
r120 57 59 6.7312
r121 53 54 4.8
r122 50 53 0.0525474
r123 48 57 6.5
r124 47 48 4.8
r125 45 50 0.00458085
r126 45 47 0.665258
r127 41 44 0.0330287
r128 40 41 0.369652
r129 38 44 0.00858359
r130 38 39 0.464609
r131 35 36 6.6
r132 33 39 0.0435808
r133 33 35 0.555835
r134 31 61 7.18023
r135 30 31 6.6
r136 28 44 0.0330287
r137 28 30 0.555835
r138 26 27 4.86444
r139 24 26 4.44748
r140 24 60 150.356
r141 19 59 31.84
r142 13 36 7.03285
r143 12 31 7.22012
r144 8 9 1.60159
r145 7 54 0.0151895
r146 7 40 0.0234935
r147 7 8 4.45
r148 1 27 4.44748
.ends

.subckt PM_SRAM_8_16_NET148 1 9 12 13 19 24 28 33 39 40 44 47 48 50 52 53 58 59
+ 60
c111 59 0 0.0611787f
c112 58 0 0.0612394f
c113 53 0 0.0239199f
c114 52 0 0.128041f
c115 50 0 0.00589074f
c116 48 0 0.00917657f
c117 47 0 0.0248793f
c118 44 0 0.0029054f
c119 40 0 0.00887965f
c120 39 0 0.0425166f
c121 33 0 0.103252f
c122 28 0 0.0536419f
c123 27 0 0.012157f
c124 24 0 0.299854f
c125 19 0 0.0312029f
c126 1 0 0.0550509f
r127 56 59 6.69732
r128 56 58 6.7312
r129 53 56 6.5
r130 52 53 4.8
r131 50 52 0.665258
r132 47 48 4.8
r133 45 50 0.0435808
r134 45 47 0.117821
r135 41 44 0.0330287
r136 40 41 0.369652
r137 38 44 0.00858359
r138 38 39 0.464609
r139 35 36 6.6
r140 33 39 0.0435808
r141 33 35 0.555835
r142 31 60 7.18023
r143 30 31 6.6
r144 28 44 0.0330287
r145 28 30 0.555835
r146 26 27 4.86444
r147 24 26 4.44748
r148 24 59 150.356
r149 19 58 31.84
r150 13 36 7.03285
r151 12 31 7.22012
r152 8 9 1.60159
r153 7 48 0.0151895
r154 7 40 0.0234935
r155 7 8 4.45
r156 1 27 4.44748
.ends

.subckt PM_SRAM_8_16_NET154 1 7 11 16 20 25 28 31 32 36 39 40 42 43 46 47 52 53
+ 54 55 58
c124 53 0 0.061213f
c125 52 0 0.0632404f
c126 47 0 0.0239199f
c127 46 0 0.0681092f
c128 43 0 0.00390481f
c129 42 0 0.0905347f
c130 40 0 0.00917657f
c131 39 0 0.125795f
c132 36 0 0.0029054f
c133 32 0 0.00887969f
c134 31 0 0.0425166f
c135 25 0 0.0657029f
c136 20 0 0.059597f
c137 19 0 0.012157f
c138 16 0 0.299854f
c139 11 0 0.0335075f
c140 1 0 0.0566346f
r141 61 65 0.000205263
r142 60 61 4.45
r143 58 60 1.59566
r144 50 53 6.69732
r145 50 52 6.7312
r146 47 50 6.5
r147 46 47 4.8
r148 44 46 0.4524
r149 42 44 0.0448948
r150 42 43 0.849643
r151 40 65 0.0151895
r152 39 40 4.8
r153 37 43 0.0448948
r154 37 39 0.589311
r155 33 36 0.0330287
r156 32 65 0.0234935
r157 32 33 0.369652
r158 30 36 0.00858359
r159 30 31 0.464609
r160 27 28 6.6
r161 25 31 0.0435808
r162 25 27 0.555835
r163 23 55 7.18023
r164 23 54 7.22012
r165 22 23 6.6
r166 20 36 0.0330287
r167 20 22 0.555835
r168 18 19 4.86444
r169 16 18 4.44748
r170 16 53 150.356
r171 11 52 31.84
r172 7 28 7.03285
r173 1 19 4.44748
.ends

.subckt PM_SRAM_8_16_NET153 1 7 8 13 18 22 27 33 34 38 41 42 44 45 48 49 54 55
+ 56 59
c116 55 0 0.061213f
c117 54 0 0.0632404f
c118 49 0 0.0239199f
c119 48 0 0.119363f
c120 45 0 0.0153185f
c121 44 0 0.182455f
c122 42 0 0.00917657f
c123 41 0 0.0217321f
c124 38 0 0.0029054f
c125 34 0 0.00887969f
c126 33 0 0.0425166f
c127 27 0 0.0754836f
c128 22 0 0.053642f
c129 21 0 0.012157f
c130 18 0 0.299639f
c131 13 0 0.0335075f
c132 1 0 0.0572248f
r133 62 66 0.000205263
r134 61 62 4.45
r135 59 61 1.59566
r136 52 55 6.69732
r137 52 54 6.7312
r138 49 52 6.5
r139 48 49 4.8
r140 46 48 0.723347
r141 44 46 0.0448948
r142 44 45 0.849643
r143 42 66 0.0151895
r144 41 42 4.8
r145 39 45 0.0448948
r146 39 41 0.108995
r147 35 38 0.0330287
r148 34 66 0.0234935
r149 34 35 0.369652
r150 32 38 0.00858359
r151 32 33 0.464609
r152 29 30 6.6
r153 27 33 0.0435808
r154 27 29 0.555835
r155 25 56 7.18023
r156 24 25 6.6
r157 22 38 0.0330287
r158 22 24 0.555835
r159 20 21 4.86444
r160 18 20 4.44748
r161 18 55 150.356
r162 13 54 31.84
r163 8 30 7.03285
r164 7 25 7.22012
r165 1 21 4.44748
.ends

.subckt PM_SRAM_8_16_NET152 1 9 12 13 19 24 28 33 39 40 44 47 48 50 51 54 55 60
+ 61 62
c117 61 0 0.0611052f
c118 60 0 0.0632404f
c119 55 0 0.0239199f
c120 54 0 0.075618f
c121 51 0 0.0153185f
c122 50 0 0.0959381f
c123 48 0 0.00917657f
c124 47 0 0.0217321f
c125 44 0 0.0029054f
c126 40 0 0.00887969f
c127 39 0 0.0425166f
c128 33 0 0.0754836f
c129 28 0 0.053642f
c130 27 0 0.012157f
c131 24 0 0.299854f
c132 19 0 0.0330269f
c133 1 0 0.0566346f
r134 58 61 6.69732
r135 58 60 6.7312
r136 55 58 6.5
r137 54 55 4.8
r138 52 54 0.513979
r139 50 52 0.0448948
r140 50 51 0.849643
r141 47 48 4.8
r142 45 51 0.0448948
r143 45 47 0.108995
r144 41 44 0.0330287
r145 40 41 0.369652
r146 38 44 0.00858359
r147 38 39 0.464609
r148 35 36 6.6
r149 33 39 0.0435808
r150 33 35 0.555835
r151 31 62 7.18023
r152 30 31 6.6
r153 28 44 0.0330287
r154 28 30 0.555835
r155 26 27 4.86444
r156 24 26 4.44748
r157 24 61 150.356
r158 19 60 31.84
r159 13 36 7.03285
r160 12 31 7.22012
r161 8 9 1.60159
r162 7 48 0.0151895
r163 7 40 0.0234935
r164 7 8 4.45
r165 1 27 4.44748
.ends

.subckt PM_SRAM_8_16_NET151 1 9 12 13 19 24 28 33 39 40 44 47 48 50 51 54 55 60
+ 61 62
c109 61 0 0.061098f
c110 60 0 0.0632404f
c111 55 0 0.0239199f
c112 54 0 0.0438778f
c113 51 0 0.0153185f
c114 50 0 0.201733f
c115 48 0 0.00917657f
c116 47 0 0.0217321f
c117 44 0 0.0029054f
c118 40 0 0.00887969f
c119 39 0 0.0425166f
c120 33 0 0.0754836f
c121 28 0 0.053642f
c122 27 0 0.012157f
c123 24 0 0.299854f
c124 19 0 0.0332931f
c125 1 0 0.0572464f
r126 58 61 6.69732
r127 58 60 6.7312
r128 55 58 6.5
r129 54 55 4.8
r130 52 54 0.304611
r131 50 52 0.0448948
r132 50 51 0.849643
r133 47 48 4.8
r134 45 51 0.0448948
r135 45 47 0.108995
r136 41 44 0.0330287
r137 40 41 0.369652
r138 38 44 0.00858359
r139 38 39 0.464609
r140 35 36 6.6
r141 33 39 0.0435808
r142 33 35 0.555835
r143 31 62 7.18023
r144 30 31 6.6
r145 28 44 0.0330287
r146 28 30 0.555835
r147 26 27 4.86444
r148 24 26 4.44748
r149 24 61 150.356
r150 19 60 31.84
r151 13 36 7.03285
r152 12 31 7.22012
r153 8 9 1.60159
r154 7 48 0.0151895
r155 7 40 0.0234935
r156 7 8 4.45
r157 1 27 4.44748
.ends

.subckt PM_SRAM_8_16_NET150 1 9 12 13 19 24 28 33 39 40 44 47 48 50 51 54 55 60
+ 61 62
c108 61 0 0.061213f
c109 60 0 0.0632404f
c110 55 0 0.0239199f
c111 54 0 0.0210976f
c112 51 0 0.0153185f
c113 50 0 0.114437f
c114 48 0 0.00917657f
c115 47 0 0.0217321f
c116 44 0 0.0029054f
c117 40 0 0.00887969f
c118 39 0 0.0425166f
c119 33 0 0.0754836f
c120 28 0 0.053642f
c121 27 0 0.012157f
c122 24 0 0.299854f
c123 19 0 0.0335075f
c124 1 0 0.0566346f
r125 58 61 6.69732
r126 58 60 6.7312
r127 55 58 6.5
r128 54 55 4.8
r129 52 54 0.0952421
r130 50 52 0.0448948
r131 50 51 0.849643
r132 47 48 4.8
r133 45 51 0.0448948
r134 45 47 0.108995
r135 41 44 0.0330287
r136 40 41 0.369652
r137 38 44 0.00858359
r138 38 39 0.464609
r139 35 36 6.6
r140 33 39 0.0435808
r141 33 35 0.555835
r142 31 62 7.18023
r143 30 31 6.6
r144 28 44 0.0330287
r145 28 30 0.555835
r146 26 27 4.86444
r147 24 26 4.44748
r148 24 61 150.356
r149 19 60 31.84
r150 13 36 7.03285
r151 12 31 7.22012
r152 8 9 1.60159
r153 7 48 0.0151895
r154 7 40 0.0234935
r155 7 8 4.45
r156 1 27 4.44748
.ends

.subckt PM_SRAM_8_16_GND 1 68 74 80 86 92 98 104 110 116 122 128 134 140 146 152
+ 158 804 805 806 812 814 841 842 843 849 851 901 902 903 909 911 938 939 940
+ 946 948 998 999 1000 1006 1008 1035 1036 1037 1043 1045 1095 1096 1097 1103
+ 1105 1132 1133 1134 1140 1142 1192 1193 1194 1200 1202 1229 1230 1231 1237
+ 1239 1289 1290 1291 1297 1299 1326 1327 1328 1334 1336 1386 1387 1388 1394
+ 1396 1423 1424 1425 1431 1433 1483 1484 1485 1491 1493 1520 1521 1522 1528