* SPICE NETLIST
***************************************

.SUBCKT n18_CDNS_6738713766025 1 2 3 4
** N=4 EP=4 IP=0 FDC=1
M0 3 4 2 1 NM L=1.8e-07 W=4.4e-07 $X=0 $Y=0 $D=0
.ENDS
***************************************
.SUBCKT p18_CDNS_6738713766022 1 2 3
** N=4 EP=3 IP=0 FDC=1
M0 1 3 2 1 PM L=1.8e-07 W=3.3e-06 $X=0 $Y=0 $D=4
.ENDS
***************************************
.SUBCKT p18_CDNS_6738713766029 1 2 3 4
** N=4 EP=4 IP=0 FDC=1
M0 2 3 1 4 PM L=1.8e-07 W=4.4e-07 $X=0 $Y=0 $D=4
.ENDS
***************************************
.SUBCKT n18_CDNS_6738713766021 1 2 3
** N=3 EP=3 IP=0 FDC=1
M0 2 3 1 1 NM L=1.8e-07 W=8.8e-07 $X=0 $Y=0 $D=0
.ENDS
***************************************
.SUBCKT n18_CDNS_6738713766023 1 2 3 4
** N=4 EP=4 IP=0 FDC=1
M0 2 3 1 4 NM L=1.8e-07 W=4.4e-07 $X=0 $Y=0 $D=0
.ENDS
***************************************
.SUBCKT n18_CDNS_6738713766018 1 2 3 4
** N=4 EP=4 IP=0 FDC=1
M0 2 3 1 4 NM L=1.8e-07 W=4.4e-07 $X=0 $Y=0 $D=0
.ENDS
***************************************
.SUBCKT ICV_1 1 2 3 4 5 6
** N=6 EP=6 IP=8 FDC=2
X0 1 2 5 6 n18_CDNS_6738713766023 $T=0 -1660 0 0 $X=-660 $Y=-2010
X1 3 4 5 6 n18_CDNS_6738713766018 $T=0 0 0 0 $X=-660 $Y=-350
.ENDS
***************************************
.SUBCKT n18_CDNS_6738713766016 1 2 3 4
** N=4 EP=4 IP=0 FDC=1
M0 3 4 2 1 NM L=1.8e-07 W=1.76e-06 $X=0 $Y=0 $D=0
.ENDS
***************************************
.SUBCKT n18_CDNS_6738713766017 1 2 3 4
** N=4 EP=4 IP=0 FDC=1
M0 3 4 2 1 NM L=1.8e-07 W=1.76e-06 $X=0 $Y=0 $D=0
.ENDS
***************************************
.SUBCKT ICV_2 1 2 3 4 5 6 7 8
** N=8 EP=8 IP=16 FDC=4
X0 1 2 1 6 n18_CDNS_6738713766016 $T=0 0 0 0 $X=-660 $Y=-1130
X1 1 1 3 7 n18_CDNS_6738713766016 $T=2020 0 0 0 $X=1360 $Y=-1130
X2 1 2 4 8 n18_CDNS_6738713766017 $T=0 2900 0 0 $X=-660 $Y=2550
X3 1 5 3 8 n18_CDNS_6738713766017 $T=2020 2900 0 0 $X=1360 $Y=2550
.ENDS
***************************************
.SUBCKT ICV_3 1 2 3 4 5 6 7 8 9 10 11 12 13 14
** N=14 EP=14 IP=16 FDC=8
X0 1 2 5 3 4 10 12 11 ICV_2 $T=0 0 0 0 $X=-660 $Y=-1130
X1 1 6 9 7 8 13 14 11 ICV_2 $T=4460 0 0 0 $X=3800 $Y=-1130
.ENDS
***************************************
.SUBCKT p18_CDNS_673871376605 1 2 3 4
** N=4 EP=4 IP=0 FDC=1
M0 3 4 2 1 PM L=1.8e-07 W=4.4e-07 $X=0 $Y=0 $D=4
.ENDS
***************************************
.SUBCKT ICV_4 1 2 3 4
** N=5 EP=4 IP=8 FDC=2
X0 1 1 2 4 p18_CDNS_673871376605 $T=0 0 0 0 $X=-910 $Y=-430
X1 1 3 1 4 p18_CDNS_673871376605 $T=1940 0 0 0 $X=1030 $Y=-430
.ENDS
***************************************
.SUBCKT ICV_5 1 2 3 4 5 6
** N=7 EP=6 IP=10 FDC=4
X0 1 2 3 6 ICV_4 $T=0 0 0 0 $X=-910 $Y=-430
X1 1 4 5 6 ICV_4 $T=4460 0 0 0 $X=3550 $Y=-430
.ENDS
***************************************
.SUBCKT p18_CDNS_6738713766020 1 2 3
** N=3 EP=3 IP=0 FDC=1
M0 2 3 1 1 PM L=1.8e-07 W=4.4e-07 $X=0 $Y=0 $D=4
.ENDS
***************************************
.SUBCKT ICV_6 1 2 3 4
** N=5 EP=4 IP=6 FDC=2
X0 1 2 4 p18_CDNS_6738713766020 $T=-2020 0 0 0 $X=-2930 $Y=-1130
X1 1 3 2 p18_CDNS_6738713766020 $T=0 0 0 0 $X=-910 $Y=-1130
.ENDS
***************************************
.SUBCKT n18_CDNS_6738713766024 1 2 3
** N=3 EP=3 IP=0 FDC=1
M0 2 3 1 1 NM L=1.8e-07 W=2.2e-07 $X=0 $Y=0 $D=0
.ENDS
***************************************
.SUBCKT n18_CDNS_6738713766019 1 2 3
** N=3 EP=3 IP=0 FDC=1
M0 2 3 1 1 NM L=1.8e-07 W=2.2e-07 $X=0 $Y=0 $D=0
.ENDS
***************************************
.SUBCKT ICV_7 1 2 3 4
** N=4 EP=4 IP=6 FDC=2
X0 1 2 4 n18_CDNS_6738713766024 $T=-2020 0 0 0 $X=-2720 $Y=-350
X1 1 3 2 n18_CDNS_6738713766019 $T=0 0 0 0 $X=-700 $Y=-350
.ENDS
***************************************
.SUBCKT ICV_8 1 2 3 4 5 6 7 8
** N=8 EP=8 IP=18 FDC=8
X0 1 2 3 7 ICV_6 $T=-4460 0 0 0 $X=-7390 $Y=-1130
X1 1 4 5 8 ICV_6 $T=0 0 0 0 $X=-2930 $Y=-1130
X2 6 2 3 7 ICV_7 $T=-4460 1650 0 0 $X=-7180 $Y=1300
X3 6 4 5 8 ICV_7 $T=0 1650 0 0 $X=-2720 $Y=1300
.ENDS
***************************************
.SUBCKT n18_CDNS_6738713766015 1 2 3
** N=3 EP=3 IP=0 FDC=1
M0 2 3 1 1 NM L=1.8e-07 W=8e-07 $X=0 $Y=0 $D=0
.ENDS
***************************************
.SUBCKT n18_CDNS_6738713766026 1 2 3
** N=3 EP=3 IP=0 FDC=1
M0 2 3 1 2 NM L=1.8e-07 W=8e-07 $X=0 $Y=0 $D=0
.ENDS
***************************************
.SUBCKT ICV_9 1 2 3
** N=3 EP=3 IP=6 FDC=2
X0 1 2 3 n18_CDNS_6738713766015 $T=0 0 0 0 $X=-1520 $Y=-350
X1 3 1 2 n18_CDNS_6738713766026 $T=2020 0 0 0 $X=1360 $Y=-350
.ENDS
***************************************
.SUBCKT ICV_10 1 2 3 4 5
** N=5 EP=5 IP=6 FDC=4
X0 1 2 3 ICV_9 $T=0 0 0 0 $X=-1520 $Y=-350
X1 1 4 5 ICV_9 $T=4460 0 0 0 $X=2940 $Y=-350
.ENDS
***************************************
.SUBCKT p18_CDNS_6738713766028 1 2 3 4
** N=4 EP=4 IP=0 FDC=1
M0 3 4 2 1 PM L=1.8e-07 W=2.2e-07 $X=0 $Y=0 $D=4
.ENDS
***************************************
.SUBCKT ICV_11 1 2 3
** N=3 EP=3 IP=8 FDC=2
X0 1 1 2 3 p18_CDNS_6738713766028 $T=0 0 0 0 $X=-950 $Y=-530
X1 1 3 1 2 p18_CDNS_6738713766028 $T=2020 0 0 0 $X=1070 $Y=-530
.ENDS
***************************************
.SUBCKT ICV_12 1 2 3 4 5
** N=5 EP=5 IP=6 FDC=4
X0 1 2 3 ICV_11 $T=0 0 0 0 $X=-950 $Y=-530
X1 1 4 5 ICV_11 $T=4460 0 0 0 $X=3510 $Y=-530
.ENDS
***************************************
.SUBCKT ICV_13 1 2 3 4 5 6 7 8 9 10
** N=10 EP=10 IP=20 FDC=16
X0 1 2 3 4 5 ICV_10 $T=0 0 0 0 $X=-1520 $Y=-350
X1 1 6 7 8 9 ICV_10 $T=8920 0 0 0 $X=7400 $Y=-350
X2 10 2 3 4 5 ICV_12 $T=0 1950 0 0 $X=-950 $Y=1420
X3 10 6 7 8 9 ICV_12 $T=8920 1950 0 0 $X=7970 $Y=1420
.ENDS
***************************************
.SUBCKT ICV_14 1 2 3 4 5 6 7 8 9 10 11 12 13 14 15 16 17 18
** N=18 EP=18 IP=20 FDC=32
X0 1 3 4 5 6 7 8 9 10 2 ICV_13 $T=0 0 0 0 $X=-1520 $Y=-350
X1 1 11 12 13 14 15 16 17 18 2 ICV_13 $T=17840 0 0 0 $X=16320 $Y=-350
.ENDS
***************************************
.SUBCKT ICV_15 1 2 3 4 5 6 7 8 9 10 11 12 13 14 15 16 17 18 19 20
+ 21 22 23 24 25 26 27 28 29 30 31 32 33 34
** N=34 EP=34 IP=36 FDC=64
X0 1 2 3 4 5 6 7 8 9 10 11 12 13 14 15 16 17 18 ICV_14 $T=0 0 0 0 $X=-1520 $Y=-350
X1 1 2 19 20 21 22 23 24 25 26 27 28 29 30 31 32 33 34 ICV_14 $T=35680 0 0 0 $X=34160 $Y=-350
.ENDS
***************************************
.SUBCKT n18_CDNS_6738713766013 1 2 3
** N=3 EP=3 IP=0 FDC=1
M0 2 3 1 1 NM L=1.8e-07 W=1.76e-06 $X=0 $Y=0 $D=0
.ENDS
***************************************
.SUBCKT p18_CDNS_6738713766014 1 2 3
** N=3 EP=3 IP=0 FDC=1
M0 2 3 1 1 PM L=1.8e-07 W=3.52e-06 $X=0 $Y=0 $D=4
.ENDS
***************************************
.SUBCKT n18_CDNS_6738713766011 1 2 3 4
** N=4 EP=4 IP=0 FDC=1
M0 3 4 2 1 NM L=1.8e-07 W=4.4e-07 $X=0 $Y=0 $D=0
.ENDS
***************************************
.SUBCKT n18_CDNS_673871376608 1 2 3
** N=3 EP=3 IP=0 FDC=1
M0 2 3 1 1 NM L=1.8e-07 W=8.8e-07 $X=0 $Y=0 $D=0
.ENDS
***************************************
.SUBCKT ICV_16 1 2 3 4
** N=4 EP=4 IP=6 FDC=2
X0 1 2 4 n18_CDNS_673871376608 $T=0 0 0 0 $X=-660 $Y=-1130
X1 1 3 2 n18_CDNS_673871376608 $T=1940 0 0 0 $X=1280 $Y=-1130
.ENDS
***************************************
.SUBCKT p18_CDNS_673871376609 1 2 3
** N=3 EP=3 IP=0 FDC=1
M0 2 3 1 1 PM L=1.8e-07 W=1.76e-06 $X=0 $Y=0 $D=4
.ENDS
***************************************
.SUBCKT ICV_17 1 2 3 4
** N=4 EP=4 IP=6 FDC=2
X0 1 2 4 p18_CDNS_673871376609 $T=0 0 0 0 $X=-910 $Y=-430
X1 1 3 2 p18_CDNS_673871376609 $T=1940 0 0 0 $X=1030 $Y=-430
.ENDS
***************************************
.SUBCKT p18_CDNS_6738713766010 1 2 3
** N=3 EP=3 IP=0 FDC=1
M0 3 2 1 1 PM L=1.8e-07 W=8.8e-07 $X=0 $Y=0 $D=4
.ENDS
***************************************
.SUBCKT p18_CDNS_6738713766012 1 2 3 4
** N=4 EP=4 IP=0 FDC=1
M0 2 3 4 1 PM L=1.8e-07 W=8.8e-07 $X=0 $Y=0 $D=4
.ENDS
***************************************
.SUBCKT ICV_18 1 2 3 4
** N=5 EP=4 IP=7 FDC=2
X0 1 3 5 p18_CDNS_6738713766010 $T=0 0 0 0 $X=-910 $Y=-430
X1 1 2 4 5 p18_CDNS_6738713766012 $T=430 0 0 0 $X=-125 $Y=-430
.ENDS
***************************************
.SUBCKT n18_CDNS_673871376606 1 2 3
** N=3 EP=3 IP=0 FDC=1
M0 2 3 1 1 NM L=1.8e-07 W=2.2e-07 $X=0 $Y=0 $D=0
.ENDS
***************************************
.SUBCKT n18_CDNS_673871376600 1 2 3 4
** N=4 EP=4 IP=0 FDC=1
M0 2 3 4 1 NM L=1.8e-07 W=4.4e-07 $X=0 $Y=0 $D=0
.ENDS
***************************************
.SUBCKT n18_CDNS_673871376601 1 2 3
** N=3 EP=3 IP=0 FDC=1
M0 3 2 1 1 NM L=1.8e-07 W=4.4e-07 $X=0 $Y=0 $D=0
.ENDS
***************************************
.SUBCKT p18_CDNS_673871376607 1 2 3
** N=3 EP=3 IP=0 FDC=1
M0 2 3 1 1 PM L=1.8e-07 W=8.8e-07 $X=0 $Y=0 $D=4
.ENDS
***************************************
.SUBCKT ICV_19 1 2 3 4 5
** N=5 EP=5 IP=6 FDC=2
X0 1 2 4 n18_CDNS_673871376606 $T=0 -1680 1 0 $X=-700 $Y=-2250
X1 1 3 5 n18_CDNS_673871376606 $T=0 0 0 0 $X=-700 $Y=-1230
.ENDS
***************************************
.SUBCKT ICV_20 1 2 3 4 5 6 7 8 9
** N=9 EP=9 IP=10 FDC=4
X0 1 2 3 6 7 ICV_19 $T=0 0 0 0 $X=-700 $Y=-2250
X1 1 4 5 8 9 ICV_19 $T=2020 0 0 0 $X=1320 $Y=-2250
.ENDS
***************************************
.SUBCKT ICV_21 1 2 3 4 5
** N=5 EP=5 IP=8 FDC=2
X0 1 1 2 4 p18_CDNS_673871376605 $T=0 0 0 0 $X=-910 $Y=-430
X1 1 1 3 5 p18_CDNS_673871376605 $T=0 2360 1 0 $X=-910 $Y=790
.ENDS
***************************************
.SUBCKT ICV_22 1 2 3 4 5 6 7 8 9
** N=9 EP=9 IP=10 FDC=4
X0 1 2 3 6 7 ICV_21 $T=0 0 0 0 $X=-910 $Y=-430
X1 1 4 5 8 9 ICV_21 $T=2020 0 0 0 $X=1110 $Y=-430
.ENDS
***************************************
.SUBCKT ICV_23 1 2 3 4 5
** N=5 EP=5 IP=6 FDC=2
X0 1 2 4 p18_CDNS_673871376607 $T=0 0 0 0 $X=-910 $Y=-430
X1 1 3 5 p18_CDNS_673871376607 $T=0 3240 1 0 $X=-910 $Y=1230
.ENDS
***************************************
.SUBCKT ICV_24 1 2 3 4 5
** N=5 EP=5 IP=6 FDC=2
X0 1 2 4 n18_CDNS_673871376608 $T=0 -1480 1 0 $X=-660 $Y=-2710
X1 1 3 5 n18_CDNS_673871376608 $T=0 0 0 0 $X=-660 $Y=-1130
.ENDS
***************************************
.SUBCKT ICV_25 1 2 3 4 5 6 7
** N=7 EP=7 IP=10 FDC=4
X0 1 2 3 6 7 ICV_24 $T=0 0 0 0 $X=-660 $Y=-2710
X1 1 4 5 2 3 ICV_24 $T=1940 0 0 0 $X=1280 $Y=-2710
.ENDS
***************************************
.SUBCKT ICV_26 1 2 3 4 5 6 7
** N=7 EP=7 IP=8 FDC=4
X0 1 2 3 6 ICV_17 $T=0 0 0 0 $X=-910 $Y=-430
X1 1 4 5 7 ICV_17 $T=0 5000 1 0 $X=-910 $Y=2110
.ENDS
***************************************
.SUBCKT ICV_27 1 2 3 4 5 6
** N=6 EP=6 IP=8 FDC=4
X0 1 2 3 6 ICV_16 $T=0 0 0 0 $X=-660 $Y=-1130
X1 1 4 5 3 ICV_16 $T=3880 0 0 0 $X=3220 $Y=-1130
.ENDS
***************************************
.SUBCKT ICV_28 1 2 3 4 5 6 7 8 9 10
** N=10 EP=10 IP=12 FDC=8
X0 1 2 3 4 5 10 ICV_27 $T=0 0 0 0 $X=-660 $Y=-1130
X1 1 6 7 8 9 5 ICV_27 $T=7760 0 0 0 $X=7100 $Y=-1130
.ENDS
***************************************
.SUBCKT ICV_29 1 2 3 4 5 6
** N=7 EP=6 IP=8 FDC=4
X0 1 2 3 6 ICV_17 $T=0 0 0 0 $X=-910 $Y=-430
X1 1 4 5 3 ICV_17 $T=3880 0 0 0 $X=2970 $Y=-430
.ENDS
***************************************
.SUBCKT ICV_30 1 2 3 4 5 6 7 8 9 10
** N=11 EP=10 IP=14 FDC=8
X0 1 2 3 4 5 10 ICV_29 $T=0 0 0 0 $X=-910 $Y=-430
X1 1 6 7 8 9 5 ICV_29 $T=7760 0 0 0 $X=6850 $Y=-430
.ENDS
***************************************
.SUBCKT ICV_31 1 2 3 4 5 6 7 8 9 10 11
** N=11 EP=11 IP=14 FDC=8
X0 1 2 4 3 5 10 11 ICV_26 $T=0 0 0 0 $X=-910 $Y=-430
X1 1 6 8 7 9 4 5 ICV_26 $T=3880 0 0 0 $X=2970 $Y=-430
.ENDS
***************************************
.SUBCKT ICV_32 1 2 3 4 5
** N=6 EP=5 IP=10 FDC=3
X0 1 2 3 n18_CDNS_673871376606 $T=0 0 0 0 $X=-700 $Y=-1230
X1 1 3 4 6 n18_CDNS_673871376600 $T=-2230 -100 0 0 $X=-2550 $Y=-1230
X2 1 5 6 n18_CDNS_673871376601 $T=-2660 -100 0 0 $X=-3320 $Y=-1230
.ENDS
***************************************
.SUBCKT p18_CDNS_673871376604 1 2 3
** N=3 EP=3 IP=0 FDC=1
M0 3 2 1 1 PM L=1.8e-07 W=1.32e-06 $X=0 $Y=0 $D=4
.ENDS
***************************************
.SUBCKT p18_CDNS_673871376603 1 2 3 4
** N=4 EP=4 IP=0 FDC=1
M0 4 2 3 1 PM L=1.8e-07 W=1.32e-06 $X=0 $Y=0 $D=4
.ENDS
***************************************
.SUBCKT p18_CDNS_673871376602 1 2 3 4
** N=4 EP=4 IP=0 FDC=1
M0 2 3 4 1 PM L=1.8e-07 W=1.32e-06 $X=0 $Y=0 $D=4
.ENDS
***************************************
.SUBCKT n18_CDNS_6738713766027 1 2 3 4
** N=4 EP=4 IP=0 FDC=1
M0 3 4 2 1 NM L=1.8e-07 W=2.2e-07 $X=0 $Y=0 $D=0
.ENDS
***************************************
.SUBCKT SRAM_REG A2 A1 A0 GND CLK MODE CLKREG B0 INVB0 B1 INVB1 B2 INVB2 B3 INVB3 B4 INVB4 B5 INVB5 B6
+ INVB6 RST B7 INVB7 B8 INVB8 B9 INVB9 B10 INVB10 B11 INVB11 B12 INVB12 B13 INVB13 B14 INVB14 B15 INVB15
+ VDD ADD4 ADD3 SAEN ADD7 ADD6 ADD5 ADD2 ADD1 ADD0 PCEN D0 Q1 Q0 D1 Q3 Q2 D2 D3 Q5
+ Q4 D4 D5 Q7 Q6 D6 D7 Q9 Q8 D8 D9 Q11 Q10 D10 D11 Q13 Q12 D12 Q15 Q14
+ D13 D14 D15
** N=881 EP=83 IP=2653 FDC=1924
M0 GND A0 29 GND NM L=1.8e-07 W=2.2e-07 $X=-13265 $Y=2460 $D=0
M1 GND 30 31 GND NM L=1.8e-07 W=2.2e-07 $X=-11545 $Y=-780 $D=0
M2 31 29 GND GND NM L=1.8e-07 W=2.2e-07 $X=-11545 $Y=20 $D=0
M3 34 28 GND GND NM L=1.8e-07 W=2.2e-07 $X=-11545 $Y=2040 $D=0
M4 GND 30 34 GND NM L=1.8e-07 W=2.2e-07 $X=-11545 $Y=2840 $D=0
M5 GND A1 35 GND NM L=1.8e-07 W=2.2e-07 $X=-11545 $Y=6460 $D=0
M6 GND A1 36 GND NM L=1.8e-07 W=2.2e-07 $X=-11545 $Y=10080 $D=0
M7 GND 30 37 GND NM L=1.8e-07 W=2.2e-07 $X=-11545 $Y=13700 $D=0
M8 GND 30 38 GND NM L=1.8e-07 W=2.2e-07 $X=-11545 $Y=17320 $D=0
M9 GND A1 32 GND NM L=1.8e-07 W=2.2e-07 $X=-11545 $Y=20940 $D=0
M10 GND A1 33 GND NM L=1.8e-07 W=2.2e-07 $X=-11545 $Y=24560 $D=0
M11 212 41 GND GND NM L=1.8e-07 W=2.2e-07 $X=2035 $Y=39990 $D=0
M12 49 212 GND GND NM L=1.8e-07 W=2.2e-07 $X=4055 $Y=39990 $D=0
M13 216 214 GND GND NM L=1.8e-07 W=8.8e-07 $X=4935 $Y=41790 $D=0
M14 224 49 GND GND NM L=1.8e-07 W=8.8e-07 $X=6035 $Y=39430 $D=0
M15 234 224 GND GND NM L=1.8e-07 W=8.8e-07 $X=7975 $Y=39430 $D=0
M16 244 234 GND GND NM L=1.8e-07 W=8.8e-07 $X=9915 $Y=39430 $D=0
M17 254 244 GND GND NM L=1.8e-07 W=8.8e-07 $X=11855 $Y=39430 $D=0
M18 264 254 GND GND NM L=1.8e-07 W=8.8e-07 $X=13795 $Y=39430 $D=0
M19 275 264 GND GND NM L=1.8e-07 W=8.8e-07 $X=15735 $Y=39430 $D=0
M20 285 267 GND GND NM L=1.8e-07 W=8.8e-07 $X=18515 $Y=41790 $D=0
M21 294 49 773 GND NM L=1.8e-07 W=4.4e-07 $X=20125 $Y=39870 $D=0
M22 774 CLK GND GND NM L=1.8e-07 W=4.4e-07 $X=22475 $Y=41790 $D=0
M23 306 296 774 GND NM L=1.8e-07 W=4.4e-07 $X=22905 $Y=41790 $D=0
M24 308 298 775 GND NM L=1.8e-07 W=4.4e-07 $X=24765 $Y=-19170 $D=0
M25 315 305 776 GND NM L=1.8e-07 W=4.4e-07 $X=24765 $Y=39870 $D=0
M26 316 308 GND GND NM L=1.8e-07 W=2.2e-07 $X=26995 $Y=-19070 $D=0
M27 323 315 GND GND NM L=1.8e-07 W=2.2e-07 $X=26995 $Y=39990 $D=0
M28 56 316 GND GND NM L=1.8e-07 W=2.2e-07 $X=29015 $Y=-19070 $D=0
M29 63 323 GND GND NM L=1.8e-07 W=2.2e-07 $X=29015 $Y=39990 $D=0
M30 66 1 GND GND NM L=1.8e-07 W=2.2e-07 $X=31035 $Y=-19070 $D=0
M31 75 MODE 41 GND NM L=1.8e-07 W=4.4e-07 $X=31155 $Y=41790 $D=0
M32 40 52 74 GND NM L=1.8e-07 W=4.4e-07 $X=31875 $Y=-21090 $D=0
M33 41 53 75 GND NM L=1.8e-07 W=4.4e-07 $X=31875 $Y=41790 $D=0
M34 74 54 GND GND NM L=1.8e-07 W=4.4e-07 $X=33815 $Y=-21090 $D=0
M35 75 55 GND GND NM L=1.8e-07 W=4.4e-07 $X=33815 $Y=41790 $D=0
M36 GND 64 74 GND NM L=1.8e-07 W=4.4e-07 $X=34535 $Y=-21090 $D=0
M37 GND 65 75 GND NM L=1.8e-07 W=4.4e-07 $X=34535 $Y=41790 $D=0
M38 ADD7 56 85 GND NM L=1.8e-07 W=4.4e-07 $X=35755 $Y=-19170 $D=0
M39 ADD6 57 86 GND NM L=1.8e-07 W=4.4e-07 $X=35755 $Y=-5850 $D=0
M40 ADD5 58 87 GND NM L=1.8e-07 W=4.4e-07 $X=35755 $Y=-3930 $D=0
M41 ADD4 59 88 GND NM L=1.8e-07 W=4.4e-07 $X=35755 $Y=9390 $D=0
M42 ADD3 60 89 GND NM L=1.8e-07 W=4.4e-07 $X=35755 $Y=11310 $D=0
M43 ADD2 61 90 GND NM L=1.8e-07 W=4.4e-07 $X=35755 $Y=24630 $D=0
M44 ADD1 62 91 GND NM L=1.8e-07 W=4.4e-07 $X=35755 $Y=26550 $D=0
M45 ADD0 63 92 GND NM L=1.8e-07 W=4.4e-07 $X=35755 $Y=39870 $D=0
M46 92 73 GND GND NM L=1.8e-07 W=4.4e-07 $X=37695 $Y=39870 $D=0
M47 SAEN 329 GND GND NM L=1.8e-07 W=8.8e-07 $X=38415 $Y=-21530 $D=0
M48 GND 77 85 GND NM L=1.8e-07 W=4.4e-07 $X=38415 $Y=-19170 $D=0
M49 GND 78 86 GND NM L=1.8e-07 W=4.4e-07 $X=38415 $Y=-5850 $D=0
M50 GND 79 87 GND NM L=1.8e-07 W=4.4e-07 $X=38415 $Y=-3930 $D=0
M51 GND 80 88 GND NM L=1.8e-07 W=4.4e-07 $X=38415 $Y=9390 $D=0
M52 GND 81 89 GND NM L=1.8e-07 W=4.4e-07 $X=38415 $Y=11310 $D=0
M53 GND 82 90 GND NM L=1.8e-07 W=4.4e-07 $X=38415 $Y=24630 $D=0
M54 GND 83 91 GND NM L=1.8e-07 W=4.4e-07 $X=38415 $Y=26550 $D=0
M55 GND 84 92 GND NM L=1.8e-07 W=4.4e-07 $X=38415 $Y=39870 $D=0
M56 777 365 GND GND NM L=1.8e-07 W=4.4e-07 $X=42135 $Y=-42825 $D=0
M57 778 366 GND GND NM L=1.8e-07 W=4.4e-07 $X=42135 $Y=-39125 $D=0
M58 Q1 CLKREG 777 GND NM L=1.8e-07 W=4.4e-07 $X=42565 $Y=-42825 $D=0
M59 Q0 CLKREG 778 GND NM L=1.8e-07 W=4.4e-07 $X=42565 $Y=-39125 $D=0
M60 GND D0 94 GND NM L=1.8e-07 W=2.2e-07 $X=42745 $Y=-26240 $D=0
M61 354 B0 342 GND NM L=1.8e-07 W=4.4e-07 $X=42785 $Y=-17660 $D=0
M62 98 94 GND GND NM L=1.8e-07 W=2.2e-07 $X=43545 $Y=-26240 $D=0
M63 779 CLKREG 365 GND NM L=1.8e-07 W=4.4e-07 $X=44505 $Y=-42825 $D=0
M64 780 CLKREG 366 GND NM L=1.8e-07 W=4.4e-07 $X=44505 $Y=-39125 $D=0
M65 GND 369 779 GND NM L=1.8e-07 W=4.4e-07 $X=44935 $Y=-42825 $D=0
M66 GND 370 780 GND NM L=1.8e-07 W=4.4e-07 $X=44935 $Y=-39125 $D=0
M67 369 382 GND GND NM L=1.8e-07 W=4.4e-07 $X=45655 $Y=-42825 $D=0
M68 370 383 GND GND NM L=1.8e-07 W=4.4e-07 $X=45655 $Y=-39125 $D=0
M69 GND RST 369 GND NM L=1.8e-07 W=4.4e-07 $X=46375 $Y=-42825 $D=0
M70 GND RST 370 GND NM L=1.8e-07 W=4.4e-07 $X=46375 $Y=-39125 $D=0
M71 GND D1 99 GND NM L=1.8e-07 W=2.2e-07 $X=47205 $Y=-26240 $D=0
M72 381 B1 371 GND NM L=1.8e-07 W=4.4e-07 $X=47245 $Y=-17660 $D=0
M73 102 99 GND GND NM L=1.8e-07 W=2.2e-07 $X=48005 $Y=-26240 $D=0
M74 GND 10 382 GND NM L=1.8e-07 W=2.2e-07 $X=48355 $Y=-42725 $D=0
M75 GND 9 383 GND NM L=1.8e-07 W=2.2e-07 $X=48355 $Y=-39005 $D=0
M76 781 409 GND GND NM L=1.8e-07 W=4.4e-07 $X=50335 $Y=-42825 $D=0
M77 782 410 GND GND NM L=1.8e-07 W=4.4e-07 $X=50335 $Y=-39125 $D=0
M78 Q3 CLKREG 781 GND NM L=1.8e-07 W=4.4e-07 $X=50765 $Y=-42825 $D=0
M79 Q2 CLKREG 782 GND NM L=1.8e-07 W=4.4e-07 $X=50765 $Y=-39125 $D=0
M80 GND D2 103 GND NM L=1.8e-07 W=2.2e-07 $X=51665 $Y=-26240 $D=0
M81 408 B2 398 GND NM L=1.8e-07 W=4.4e-07 $X=51705 $Y=-17660 $D=0
M82 106 103 GND GND NM L=1.8e-07 W=2.2e-07 $X=52465 $Y=-26240 $D=0
M83 783 CLKREG 409 GND NM L=1.8e-07 W=4.4e-07 $X=52705 $Y=-42825 $D=0
M84 784 CLKREG 410 GND NM L=1.8e-07 W=4.4e-07 $X=52705 $Y=-39125 $D=0
M85 GND 423 783 GND NM L=1.8e-07 W=4.4e-07 $X=53135 $Y=-42825 $D=0
M86 GND 424 784 GND NM L=1.8e-07 W=4.4e-07 $X=53135 $Y=-39125 $D=0
M87 423 434 GND GND NM L=1.8e-07 W=4.4e-07 $X=53855 $Y=-42825 $D=0
M88 424 435 GND GND NM L=1.8e-07 W=4.4e-07 $X=53855 $Y=-39125 $D=0
M89 GND RST 423 GND NM L=1.8e-07 W=4.4e-07 $X=54575 $Y=-42825 $D=0
M90 GND RST 424 GND NM L=1.8e-07 W=4.4e-07 $X=54575 $Y=-39125 $D=0
M91 GND D3 107 GND NM L=1.8e-07 W=2.2e-07 $X=56125 $Y=-26240 $D=0
M92 437 B3 425 GND NM L=1.8e-07 W=4.4e-07 $X=56165 $Y=-17660 $D=0
M93 GND 12 434 GND NM L=1.8e-07 W=2.2e-07 $X=56555 $Y=-42725 $D=0
M94 GND 11 435 GND NM L=1.8e-07 W=2.2e-07 $X=56555 $Y=-39005 $D=0
M95 110 107 GND GND NM L=1.8e-07 W=2.2e-07 $X=56925 $Y=-26240 $D=0
M96 785 462 GND GND NM L=1.8e-07 W=4.4e-07 $X=58535 $Y=-42825 $D=0
M97 786 463 GND GND NM L=1.8e-07 W=4.4e-07 $X=58535 $Y=-39125 $D=0
M98 Q5 CLKREG 785 GND NM L=1.8e-07 W=4.4e-07 $X=58965 $Y=-42825 $D=0
M99 Q4 CLKREG 786 GND NM L=1.8e-07 W=4.4e-07 $X=58965 $Y=-39125 $D=0
M100 GND D4 111 GND NM L=1.8e-07 W=2.2e-07 $X=60585 $Y=-26240 $D=0
M101 464 B4 452 GND NM L=1.8e-07 W=4.4e-07 $X=60625 $Y=-17660 $D=0
M102 787 CLKREG 462 GND NM L=1.8e-07 W=4.4e-07 $X=60905 $Y=-42825 $D=0
M103 788 CLKREG 463 GND NM L=1.8e-07 W=4.4e-07 $X=60905 $Y=-39125 $D=0
M104 GND 476 787 GND NM L=1.8e-07 W=4.4e-07 $X=61335 $Y=-42825 $D=0
M105 GND 477 788 GND NM L=1.8e-07 W=4.4e-07 $X=61335 $Y=-39125 $D=0
M106 114 111 GND GND NM L=1.8e-07 W=2.2e-07 $X=61385 $Y=-26240 $D=0
M107 476 479 GND GND NM L=1.8e-07 W=4.4e-07 $X=62055 $Y=-42825 $D=0
M108 477 480 GND GND NM L=1.8e-07 W=4.4e-07 $X=62055 $Y=-39125 $D=0
M109 GND RST 476 GND NM L=1.8e-07 W=4.4e-07 $X=62775 $Y=-42825 $D=0
M110 GND RST 477 GND NM L=1.8e-07 W=4.4e-07 $X=62775 $Y=-39125 $D=0
M111 GND 14 479 GND NM L=1.8e-07 W=2.2e-07 $X=64755 $Y=-42725 $D=0
M112 GND 13 480 GND NM L=1.8e-07 W=2.2e-07 $X=64755 $Y=-39005 $D=0
M113 GND D5 115 GND NM L=1.8e-07 W=2.2e-07 $X=65045 $Y=-26240 $D=0
M114 491 B5 481 GND NM L=1.8e-07 W=4.4e-07 $X=65085 $Y=-17660 $D=0
M115 118 115 GND GND NM L=1.8e-07 W=2.2e-07 $X=65845 $Y=-26240 $D=0
M116 789 506 GND GND NM L=1.8e-07 W=4.4e-07 $X=66735 $Y=-42825 $D=0
M117 790 507 GND GND NM L=1.8e-07 W=4.4e-07 $X=66735 $Y=-39125 $D=0
M118 Q7 CLKREG 789 GND NM L=1.8e-07 W=4.4e-07 $X=67165 $Y=-42825 $D=0
M119 Q6 CLKREG 790 GND NM L=1.8e-07 W=4.4e-07 $X=67165 $Y=-39125 $D=0
M120 791 CLKREG 506 GND NM L=1.8e-07 W=4.4e-07 $X=69105 $Y=-42825 $D=0
M121 792 CLKREG 507 GND NM L=1.8e-07 W=4.4e-07 $X=69105 $Y=-39125 $D=0
M122 GND D6 119 GND NM L=1.8e-07 W=2.2e-07 $X=69505 $Y=-26240 $D=0
M123 GND 530 791 GND NM L=1.8e-07 W=4.4e-07 $X=69535 $Y=-42825 $D=0
M124 GND 531 792 GND NM L=1.8e-07 W=4.4e-07 $X=69535 $Y=-39125 $D=0
M125 518 B6 508 GND NM L=1.8e-07 W=4.4e-07 $X=69545 $Y=-17660 $D=0
M126 530 532 GND GND NM L=1.8e-07 W=4.4e-07 $X=70255 $Y=-42825 $D=0
M127 531 533 GND GND NM L=1.8e-07 W=4.4e-07 $X=70255 $Y=-39125 $D=0
M128 122 119 GND GND NM L=1.8e-07 W=2.2e-07 $X=70305 $Y=-26240 $D=0
M129 GND RST 530 GND NM L=1.8e-07 W=4.4e-07 $X=70975 $Y=-42825 $D=0
M130 GND RST 531 GND NM L=1.8e-07 W=4.4e-07 $X=70975 $Y=-39125 $D=0
M131 GND 16 532 GND NM L=1.8e-07 W=2.2e-07 $X=72955 $Y=-42725 $D=0
M132 GND 15 533 GND NM L=1.8e-07 W=2.2e-07 $X=72955 $Y=-39005 $D=0
M133 GND D7 124 GND NM L=1.8e-07 W=2.2e-07 $X=73965 $Y=-26240 $D=0
M134 545 B7 535 GND NM L=1.8e-07 W=4.4e-07 $X=74005 $Y=-17660 $D=0
M135 127 124 GND GND NM L=1.8e-07 W=2.2e-07 $X=74765 $Y=-26240 $D=0
M136 793 559 GND GND NM L=1.8e-07 W=4.4e-07 $X=74935 $Y=-42825 $D=0
M137 794 560 GND GND NM L=1.8e-07 W=4.4e-07 $X=74935 $Y=-39125 $D=0
M138 Q9 CLKREG 793 GND NM L=1.8e-07 W=4.4e-07 $X=75365 $Y=-42825 $D=0
M139 Q8 CLKREG 794 GND NM L=1.8e-07 W=4.4e-07 $X=75365 $Y=-39125 $D=0
M140 795 CLKREG 559 GND NM L=1.8e-07 W=4.4e-07 $X=77305 $Y=-42825 $D=0
M141 796 CLKREG 560 GND NM L=1.8e-07 W=4.4e-07 $X=77305 $Y=-39125 $D=0
M142 GND 582 795 GND NM L=1.8e-07 W=4.4e-07 $X=77735 $Y=-42825 $D=0
M143 GND 583 796 GND NM L=1.8e-07 W=4.4e-07 $X=77735 $Y=-39125 $D=0
M144 GND D8 128 GND NM L=1.8e-07 W=2.2e-07 $X=78425 $Y=-26240 $D=0
M145 582 586 GND GND NM L=1.8e-07 W=4.4e-07 $X=78455 $Y=-42825 $D=0
M146 583 587 GND GND NM L=1.8e-07 W=4.4e-07 $X=78455 $Y=-39125 $D=0
M147 572 B8 562 GND NM L=1.8e-07 W=4.4e-07 $X=78465 $Y=-17660 $D=0
M148 GND RST 582 GND NM L=1.8e-07 W=4.4e-07 $X=79175 $Y=-42825 $D=0
M149 GND RST 583 GND NM L=1.8e-07 W=4.4e-07 $X=79175 $Y=-39125 $D=0
M150 131 128 GND GND NM L=1.8e-07 W=2.2e-07 $X=79225 $Y=-26240 $D=0
M151 GND 18 586 GND NM L=1.8e-07 W=2.2e-07 $X=81155 $Y=-42725 $D=0
M152 GND 17 587 GND NM L=1.8e-07 W=2.2e-07 $X=81155 $Y=-39005 $D=0
M153 GND D9 132 GND NM L=1.8e-07 W=2.2e-07 $X=82885 $Y=-26240 $D=0
M154 599 B9 589 GND NM L=1.8e-07 W=4.4e-07 $X=82925 $Y=-17660 $D=0
M155 797 613 GND GND NM L=1.8e-07 W=4.4e-07 $X=83135 $Y=-42825 $D=0
M156 798 614 GND GND NM L=1.8e-07 W=4.4e-07 $X=83135 $Y=-39125 $D=0
M157 Q11 CLKREG 797 GND NM L=1.8e-07 W=4.4e-07 $X=83565 $Y=-42825 $D=0
M158 Q10 CLKREG 798 GND NM L=1.8e-07 W=4.4e-07 $X=83565 $Y=-39125 $D=0
M159 135 132 GND GND NM L=1.8e-07 W=2.2e-07 $X=83685 $Y=-26240 $D=0
M160 799 CLKREG 613 GND NM L=1.8e-07 W=4.4e-07 $X=85505 $Y=-42825 $D=0
M161 800 CLKREG 614 GND NM L=1.8e-07 W=4.4e-07 $X=85505 $Y=-39125 $D=0
M162 GND 627 799 GND NM L=1.8e-07 W=4.4e-07 $X=85935 $Y=-42825 $D=0
M163 GND 628 800 GND NM L=1.8e-07 W=4.4e-07 $X=85935 $Y=-39125 $D=0
M164 627 639 GND GND NM L=1.8e-07 W=4.4e-07 $X=86655 $Y=-42825 $D=0
M165 628 640 GND GND NM L=1.8e-07 W=4.4e-07 $X=86655 $Y=-39125 $D=0
M166 GND D10 136 GND NM L=1.8e-07 W=2.2e-07 $X=87345 $Y=-26240 $D=0
M167 GND RST 627 GND NM L=1.8e-07 W=4.4e-07 $X=87375 $Y=-42825 $D=0
M168 GND RST 628 GND NM L=1.8e-07 W=4.4e-07 $X=87375 $Y=-39125 $D=0
M169 626 B10 616 GND NM L=1.8e-07 W=4.4e-07 $X=87385 $Y=-17660 $D=0
M170 139 136 GND GND NM L=1.8e-07 W=2.2e-07 $X=88145 $Y=-26240 $D=0
M171 GND 20 639 GND NM L=1.8e-07 W=2.2e-07 $X=89355 $Y=-42725 $D=0
M172 GND 19 640 GND NM L=1.8e-07 W=2.2e-07 $X=89355 $Y=-39005 $D=0
M173 801 667 GND GND NM L=1.8e-07 W=4.4e-07 $X=91335 $Y=-42825 $D=0
M174 802 668 GND GND NM L=1.8e-07 W=4.4e-07 $X=91335 $Y=-39125 $D=0
M175 Q13 CLKREG 801 GND NM L=1.8e-07 W=4.4e-07 $X=91765 $Y=-42825 $D=0
M176 Q12 CLKREG 802 GND NM L=1.8e-07 W=4.4e-07 $X=91765 $Y=-39125 $D=0
M177 GND D11 140 GND NM L=1.8e-07 W=2.2e-07 $X=91805 $Y=-26240 $D=0
M178 655 B11 643 GND NM L=1.8e-07 W=4.4e-07 $X=91845 $Y=-17660 $D=0
M179 143 140 GND GND NM L=1.8e-07 W=2.2e-07 $X=92605 $Y=-26240 $D=0
M180 803 CLKREG 667 GND NM L=1.8e-07 W=4.4e-07 $X=93705 $Y=-42825 $D=0
M181 804 CLKREG 668 GND NM L=1.8e-07 W=4.4e-07 $X=93705 $Y=-39125 $D=0
M182 GND 671 803 GND NM L=1.8e-07 W=4.4e-07 $X=94135 $Y=-42825 $D=0
M183 GND 672 804 GND NM L=1.8e-07 W=4.4e-07 $X=94135 $Y=-39125 $D=0
M184 671 683 GND GND NM L=1.8e-07 W=4.4e-07 $X=94855 $Y=-42825 $D=0
M185 672 684 GND GND NM L=1.8e-07 W=4.4e-07 $X=94855 $Y=-39125 $D=0
M186 GND RST 671 GND NM L=1.8e-07 W=4.4e-07 $X=95575 $Y=-42825 $D=0
M187 GND RST 672 GND NM L=1.8e-07 W=4.4e-07 $X=95575 $Y=-39125 $D=0
M188 GND D12 144 GND NM L=1.8e-07 W=2.2e-07 $X=96265 $Y=-26240 $D=0
M189 682 B12 670 GND NM L=1.8e-07 W=4.4e-07 $X=96305 $Y=-17660 $D=0
M190 147 144 GND GND NM L=1.8e-07 W=2.2e-07 $X=97065 $Y=-26240 $D=0
M191 GND 22 683 GND NM L=1.8e-07 W=2.2e-07 $X=97555 $Y=-42725 $D=0
M192 GND 21 684 GND NM L=1.8e-07 W=2.2e-07 $X=97555 $Y=-39005 $D=0
M193 805 719 GND GND NM L=1.8e-07 W=4.4e-07 $X=99535 $Y=-42825 $D=0
M194 806 720 GND GND NM L=1.8e-07 W=4.4e-07 $X=99535 $Y=-39125 $D=0
M195 Q15 CLKREG 805 GND NM L=1.8e-07 W=4.4e-07 $X=99965 $Y=-42825 $D=0
M196 Q14 CLKREG 806 GND NM L=1.8e-07 W=4.4e-07 $X=99965 $Y=-39125 $D=0
M197 GND D13 148 GND NM L=1.8e-07 W=2.2e-07 $X=100725 $Y=-26240 $D=0
M198 709 B13 699 GND NM L=1.8e-07 W=4.4e-07 $X=100765 $Y=-17660 $D=0
M199 151 148 GND GND NM L=1.8e-07 W=2.2e-07 $X=101525 $Y=-26240 $D=0
M200 807 CLKREG 719 GND NM L=1.8e-07 W=4.4e-07 $X=101905 $Y=-42825 $D=0
M201 808 CLKREG 720 GND NM L=1.8e-07 W=4.4e-07 $X=101905 $Y=-39125 $D=0
M202 GND 724 807 GND NM L=1.8e-07 W=4.4e-07 $X=102335 $Y=-42825 $D=0
M203 GND 725 808 GND NM L=1.8e-07 W=4.4e-07 $X=102335 $Y=-39125 $D=0
M204 724 736 GND GND NM L=1.8e-07 W=4.4e-07 $X=103055 $Y=-42825 $D=0
M205 725 737 GND GND NM L=1.8e-07 W=4.4e-07 $X=103055 $Y=-39125 $D=0
M206 GND RST 724 GND NM L=1.8e-07 W=4.4e-07 $X=103775 $Y=-42825 $D=0
M207 GND RST 725 GND NM L=1.8e-07 W=4.4e-07 $X=103775 $Y=-39125 $D=0
M208 GND D14 152 GND NM L=1.8e-07 W=2.2e-07 $X=105185 $Y=-26240 $D=0
M209 738 B14 726 GND NM L=1.8e-07 W=4.4e-07 $X=105225 $Y=-17660 $D=0
M210 GND 24 736 GND NM L=1.8e-07 W=2.2e-07 $X=105755 $Y=-42725 $D=0
M211 GND 23 737 GND NM L=1.8e-07 W=2.2e-07 $X=105755 $Y=-39005 $D=0
M212 155 152 GND GND NM L=1.8e-07 W=2.2e-07 $X=105985 $Y=-26240 $D=0
M213 GND D15 156 GND NM L=1.8e-07 W=2.2e-07 $X=109645 $Y=-26240 $D=0
M214 761 B15 751 GND NM L=1.8e-07 W=4.4e-07 $X=109685 $Y=-17660 $D=0
M215 159 156 GND GND NM L=1.8e-07 W=2.2e-07 $X=110445 $Y=-26240 $D=0
M216 823 28 31 VDD PM L=1.8e-07 W=1.32e-06 $X=-9375 $Y=-840 $D=4
M217 VDD 29 824 VDD PM L=1.8e-07 W=1.32e-06 $X=-9375 $Y=20 $D=4
M218 825 28 34 VDD PM L=1.8e-07 W=1.32e-06 $X=-9375 $Y=2780 $D=4
M219 826 30 825 VDD PM L=1.8e-07 W=1.32e-06 $X=-9375 $Y=3210 $D=4
M220 VDD A0 826 VDD PM L=1.8e-07 W=1.32e-06 $X=-9375 $Y=3640 $D=4
M221 827 28 35 VDD PM L=1.8e-07 W=1.32e-06 $X=-9375 $Y=6400 $D=4
M222 828 A1 827 VDD PM L=1.8e-07 W=1.32e-06 $X=-9375 $Y=6830 $D=4
M223 VDD 29 828 VDD PM L=1.8e-07 W=1.32e-06 $X=-9375 $Y=7260 $D=4
M224 VDD A0 829 VDD PM L=1.8e-07 W=1.32e-06 $X=-9375 $Y=10880 $D=4
M225 831 A1 830 VDD PM L=1.8e-07 W=1.32e-06 $X=-9375 $Y=21310 $D=4
M226 194 31 VDD VDD PM L=1.8e-07 W=8.8e-07 $X=-6575 $Y=-7840 $D=4
M227 195 34 VDD VDD PM L=1.8e-07 W=8.8e-07 $X=-6575 $Y=-3200 $D=4
M228 196 35 VDD VDD PM L=1.8e-07 W=8.8e-07 $X=-6575 $Y=1440 $D=4
M229 197 36 VDD VDD PM L=1.8e-07 W=8.8e-07 $X=-6575 $Y=6080 $D=4
M230 198 37 VDD VDD PM L=1.8e-07 W=8.8e-07 $X=-6575 $Y=10720 $D=4
M231 VDD 199 4 VDD PM L=1.8e-07 W=4.4e-07 $X=-6575 $Y=13420 $D=4
M232 199 38 VDD VDD PM L=1.8e-07 W=8.8e-07 $X=-6575 $Y=15360 $D=4
M233 VDD 200 3 VDD PM L=1.8e-07 W=4.4e-07 $X=-6575 $Y=18060 $D=4
M234 200 32 VDD VDD PM L=1.8e-07 W=8.8e-07 $X=-6575 $Y=20000 $D=4
M235 VDD CLK 200 VDD PM L=1.8e-07 W=8.8e-07 $X=-6575 $Y=20720 $D=4
M236 201 33 VDD VDD PM L=1.8e-07 W=8.8e-07 $X=-6575 $Y=24640 $D=4
M237 VDD CLK 201 VDD PM L=1.8e-07 W=8.8e-07 $X=-6575 $Y=25360 $D=4
M238 VDD 42 287 VDD PM L=1.8e-07 W=8.8e-07 $X=20415 $Y=-13910 $D=4
M239 VDD 43 288 VDD PM L=1.8e-07 W=8.8e-07 $X=20415 $Y=-11550 $D=4
M240 VDD 44 289 VDD PM L=1.8e-07 W=8.8e-07 $X=20415 $Y=1330 $D=4
M241 VDD 45 290 VDD PM L=1.8e-07 W=8.8e-07 $X=20415 $Y=3690 $D=4
M242 VDD 46 291 VDD PM L=1.8e-07 W=8.8e-07 $X=20415 $Y=16570 $D=4
M243 VDD 47 292 VDD PM L=1.8e-07 W=8.8e-07 $X=20415 $Y=18930 $D=4
M244 VDD 48 293 VDD PM L=1.8e-07 W=8.8e-07 $X=20415 $Y=31810 $D=4
M245 VDD 49 294 VDD PM L=1.8e-07 W=8.8e-07 $X=20415 $Y=34170 $D=4
M246 VDD 296 306 VDD PM L=1.8e-07 W=8.8e-07 $X=23195 $Y=47050 $D=4
M247 VDD 298 308 VDD PM L=1.8e-07 W=8.8e-07 $X=25055 $Y=-13910 $D=4
M248 VDD 299 309 VDD PM L=1.8e-07 W=8.8e-07 $X=25055 $Y=-11550 $D=4
M249 VDD 300 310 VDD PM L=1.8e-07 W=8.8e-07 $X=25055 $Y=1330 $D=4
M250 VDD 301 311 VDD PM L=1.8e-07 W=8.8e-07 $X=25055 $Y=3690 $D=4
M251 VDD 302 312 VDD PM L=1.8e-07 W=8.8e-07 $X=25055 $Y=16570 $D=4
M252 VDD 303 313 VDD PM L=1.8e-07 W=8.8e-07 $X=25055 $Y=18930 $D=4
M253 VDD 304 314 VDD PM L=1.8e-07 W=8.8e-07 $X=25055 $Y=31810 $D=4
M254 VDD 305 315 VDD PM L=1.8e-07 W=8.8e-07 $X=25055 $Y=34170 $D=4
M255 307 297 VDD VDD PM L=1.8e-07 W=1.76e-06 $X=25935 $Y=-30030 $D=4
M256 54 GND VDD VDD PM L=1.8e-07 W=4.4e-07 $X=27155 $Y=-26790 $D=4
M257 325 324 VDD VDD PM L=1.8e-07 W=4.4e-07 $X=29855 $Y=-28710 $D=4
M258 40 52 832 VDD PM L=1.8e-07 W=8.8e-07 $X=31585 $Y=-26790 $D=4
M259 833 54 40 VDD PM L=1.8e-07 W=8.8e-07 $X=32305 $Y=-26790 $D=4
M260 834 55 41 VDD PM L=1.8e-07 W=8.8e-07 $X=32305 $Y=47050 $D=4
M261 VDD 325 326 VDD PM L=1.8e-07 W=8.8e-07 $X=32555 $Y=-29150 $D=4