* SPICE NETLIST
***************************************

.SUBCKT n18_CDNS_673772659997 1 2 3 4
** N=4 EP=4 IP=0 FDC=1
M0 3 4 2 1 NM L=1.8e-07 W=4.4e-07 $X=0 $Y=0 $D=0
.ENDS
***************************************
.SUBCKT p18_CDNS_6737726599915 1 2 3
** N=4 EP=3 IP=0 FDC=1
M0 1 3 2 1 PM L=1.8e-07 W=3.3e-06 $X=0 $Y=0 $D=4
.ENDS
***************************************
.SUBCKT p18_CDNS_6737726599916 1 2 3 4
** N=4 EP=4 IP=0 FDC=1
M0 2 3 1 4 PM L=1.8e-07 W=4.4e-07 $X=0 $Y=0 $D=4
.ENDS
***************************************
.SUBCKT n18_CDNS_673772659996 1 2 3
** N=3 EP=3 IP=0 FDC=1
M0 2 3 1 1 NM L=1.8e-07 W=8.8e-07 $X=0 $Y=0 $D=0
.ENDS
***************************************
.SUBCKT n18_CDNS_673772659999 1 2 3 4
** N=4 EP=4 IP=0 FDC=1
M0 2 3 1 4 NM L=1.8e-07 W=4.4e-07 $X=0 $Y=0 $D=0
.ENDS
***************************************
.SUBCKT n18_CDNS_6737726599910 1 2 3 4
** N=4 EP=4 IP=0 FDC=1
M0 2 3 1 4 NM L=1.8e-07 W=4.4e-07 $X=0 $Y=0 $D=0
.ENDS
***************************************
.SUBCKT ICV_1 1 2 3 4 5 6
** N=6 EP=6 IP=8 FDC=2
X0 1 2 5 6 n18_CDNS_673772659999 $T=0 -1660 0 0 $X=-660 $Y=-2010
X1 3 4 5 6 n18_CDNS_6737726599910 $T=0 0 0 0 $X=-660 $Y=-350
.ENDS
***************************************
.SUBCKT n18_CDNS_673772659992 1 2 3 4
** N=4 EP=4 IP=0 FDC=1
M0 3 4 2 1 NM L=1.8e-07 W=1.76e-06 $X=0 $Y=0 $D=0
.ENDS
***************************************
.SUBCKT n18_CDNS_673772659993 1 2 3 4
** N=4 EP=4 IP=0 FDC=1
M0 3 4 2 1 NM L=1.8e-07 W=1.76e-06 $X=0 $Y=0 $D=0
.ENDS
***************************************
.SUBCKT ICV_2 1 2 3 4 5 6 7 8
** N=8 EP=8 IP=16 FDC=4
X0 1 2 1 6 n18_CDNS_673772659992 $T=0 0 0 0 $X=-660 $Y=-1130
X1 1 1 3 7 n18_CDNS_673772659992 $T=2020 0 0 0 $X=1360 $Y=-1130
X2 1 2 4 8 n18_CDNS_673772659993 $T=0 2900 0 0 $X=-660 $Y=2550
X3 1 5 3 8 n18_CDNS_673772659993 $T=2020 2900 0 0 $X=1360 $Y=2550
.ENDS
***************************************
.SUBCKT ICV_3 1 2 3 4 5 6 7 8 9 10 11 12 13 14
** N=14 EP=14 IP=16 FDC=8
X0 1 2 5 3 4 10 12 11 ICV_2 $T=0 0 0 0 $X=-660 $Y=-1130
X1 1 6 9 7 8 13 14 11 ICV_2 $T=4460 0 0 0 $X=3800 $Y=-1130
.ENDS
***************************************
.SUBCKT p18_CDNS_6737726599914 1 2 3 4
** N=4 EP=4 IP=0 FDC=1
M0 3 4 2 1 PM L=1.8e-07 W=4.4e-07 $X=0 $Y=0 $D=4
.ENDS
***************************************
.SUBCKT ICV_4 1 2 3 4
** N=5 EP=4 IP=8 FDC=2
X0 1 1 2 4 p18_CDNS_6737726599914 $T=0 0 0 0 $X=-910 $Y=-430
X1 1 3 1 4 p18_CDNS_6737726599914 $T=1940 0 0 0 $X=1030 $Y=-430
.ENDS
***************************************
.SUBCKT ICV_5 1 2 3 4 5 6
** N=7 EP=6 IP=10 FDC=4
X0 1 2 3 6 ICV_4 $T=0 0 0 0 $X=-910 $Y=-430
X1 1 4 5 6 ICV_4 $T=4460 0 0 0 $X=3550 $Y=-430
.ENDS
***************************************
.SUBCKT p18_CDNS_673772659994 1 2 3
** N=3 EP=3 IP=0 FDC=1
M0 2 3 1 1 PM L=1.8e-07 W=4.4e-07 $X=0 $Y=0 $D=4
.ENDS
***************************************
.SUBCKT ICV_6 1 2 3 4
** N=5 EP=4 IP=6 FDC=2
X0 1 2 4 p18_CDNS_673772659994 $T=-2020 0 0 0 $X=-2930 $Y=-1130
X1 1 3 2 p18_CDNS_673772659994 $T=0 0 0 0 $X=-910 $Y=-1130
.ENDS
***************************************
.SUBCKT n18_CDNS_673772659998 1 2 3
** N=3 EP=3 IP=0 FDC=1
M0 2 3 1 1 NM L=1.8e-07 W=2.2e-07 $X=0 $Y=0 $D=0
.ENDS
***************************************
.SUBCKT n18_CDNS_673772659995 1 2 3
** N=3 EP=3 IP=0 FDC=1
M0 2 3 1 1 NM L=1.8e-07 W=2.2e-07 $X=0 $Y=0 $D=0
.ENDS
***************************************
.SUBCKT ICV_7 1 2 3 4
** N=4 EP=4 IP=6 FDC=2
X0 1 2 4 n18_CDNS_673772659998 $T=-2020 0 0 0 $X=-2720 $Y=-350
X1 1 3 2 n18_CDNS_673772659995 $T=0 0 0 0 $X=-700 $Y=-350
.ENDS
***************************************
.SUBCKT ICV_8 1 2 3 4 5 6 7 8
** N=8 EP=8 IP=18 FDC=8
X0 1 2 3 7 ICV_6 $T=-4460 0 0 0 $X=-7390 $Y=-1130
X1 1 4 5 8 ICV_6 $T=0 0 0 0 $X=-2930 $Y=-1130
X2 6 2 3 7 ICV_7 $T=-4460 1650 0 0 $X=-7180 $Y=1300
X3 6 4 5 8 ICV_7 $T=0 1650 0 0 $X=-2720 $Y=1300
.ENDS
***************************************
.SUBCKT n18_CDNS_6737726599912 1 2 3
** N=3 EP=3 IP=0 FDC=1
M0 2 3 1 1 NM L=1.8e-07 W=8e-07 $X=0 $Y=0 $D=0
.ENDS
***************************************
.SUBCKT n18_CDNS_6737726599911 1 2 3
** N=3 EP=3 IP=0 FDC=1
M0 2 3 1 2 NM L=1.8e-07 W=8e-07 $X=0 $Y=0 $D=0
.ENDS
***************************************
.SUBCKT ICV_9 1 2 3
** N=3 EP=3 IP=6 FDC=2
X0 1 2 3 n18_CDNS_6737726599912 $T=0 0 0 0 $X=-1520 $Y=-350
X1 3 1 2 n18_CDNS_6737726599911 $T=2020 0 0 0 $X=1360 $Y=-350
.ENDS
***************************************
.SUBCKT ICV_10 1 2 3 4 5
** N=5 EP=5 IP=6 FDC=4
X0 1 2 3 ICV_9 $T=0 0 0 0 $X=-1520 $Y=-350
X1 1 4 5 ICV_9 $T=4460 0 0 0 $X=2940 $Y=-350
.ENDS
***************************************
.SUBCKT p18_CDNS_6737726599913 1 2 3 4
** N=4 EP=4 IP=0 FDC=1
M0 3 4 2 1 PM L=1.8e-07 W=2.2e-07 $X=0 $Y=0 $D=4
.ENDS
***************************************
.SUBCKT ICV_11 1 2 3
** N=3 EP=3 IP=8 FDC=2
X0 1 1 2 3 p18_CDNS_6737726599913 $T=0 0 0 0 $X=-950 $Y=-530
X1 1 3 1 2 p18_CDNS_6737726599913 $T=2020 0 0 0 $X=1070 $Y=-530
.ENDS
***************************************
.SUBCKT ICV_12 1 2 3 4 5
** N=5 EP=5 IP=6 FDC=4
X0 1 2 3 ICV_11 $T=0 0 0 0 $X=-950 $Y=-530
X1 1 4 5 ICV_11 $T=4460 0 0 0 $X=3510 $Y=-530
.ENDS
***************************************
.SUBCKT ICV_13 1 2 3 4 5 6 7 8 9 10
** N=10 EP=10 IP=20 FDC=16
X0 1 2 3 4 5 ICV_10 $T=0 0 0 0 $X=-1520 $Y=-350
X1 1 6 7 8 9 ICV_10 $T=8920 0 0 0 $X=7400 $Y=-350
X2 10 2 3 4 5 ICV_12 $T=0 1950 0 0 $X=-950 $Y=1420
X3 10 6 7 8 9 ICV_12 $T=8920 1950 0 0 $X=7970 $Y=1420
.ENDS
***************************************
.SUBCKT ICV_14 1 2 3 4 5 6 7 8 9 10 11 12 13 14 15 16 17 18
** N=18 EP=18 IP=20 FDC=32
X0 1 3 4 5 6 7 8 9 10 2 ICV_13 $T=0 0 0 0 $X=-1520 $Y=-350
X1 1 11 12 13 14 15 16 17 18 2 ICV_13 $T=17840 0 0 0 $X=16320 $Y=-350
.ENDS
***************************************
.SUBCKT ICV_15 1 2 3 4 5 6 7 8 9 10 11 12 13 14 15 16 17 18 19 20
+ 21 22 23 24 25 26 27 28 29 30 31 32 33 34
** N=34 EP=34 IP=36 FDC=64
X0 1 2 3 4 5 6 7 8 9 10 11 12 13 14 15 16 17 18 ICV_14 $T=0 0 0 0 $X=-1520 $Y=-350
X1 1 2 19 20 21 22 23 24 25 26 27 28 29 30 31 32 33 34 ICV_14 $T=35680 0 0 0 $X=34160 $Y=-350
.ENDS
***************************************
.SUBCKT n18_CDNS_6737726599923 1 2 3
** N=3 EP=3 IP=0 FDC=1
M0 2 3 1 1 NM L=1.8e-07 W=1.76e-06 $X=0 $Y=0 $D=0
.ENDS
***************************************
.SUBCKT p18_CDNS_6737726599926 1 2 3
** N=3 EP=3 IP=0 FDC=1
M0 2 3 1 1 PM L=1.8e-07 W=3.52e-06 $X=0 $Y=0 $D=4
.ENDS
***************************************
.SUBCKT n18_CDNS_6737726599925 1 2 3 4
** N=4 EP=4 IP=0 FDC=1
M0 3 4 2 1 NM L=1.8e-07 W=4.4e-07 $X=0 $Y=0 $D=0
.ENDS
***************************************
.SUBCKT n18_CDNS_673772659990 1 2 3
** N=3 EP=3 IP=0 FDC=1
M0 2 3 1 1 NM L=1.8e-07 W=8.8e-07 $X=0 $Y=0 $D=0
.ENDS
***************************************
.SUBCKT ICV_16 1 2 3 4
** N=4 EP=4 IP=6 FDC=2
X0 1 2 4 n18_CDNS_673772659990 $T=0 0 0 0 $X=-660 $Y=-1130
X1 1 3 2 n18_CDNS_673772659990 $T=1940 0 0 0 $X=1280 $Y=-1130
.ENDS
***************************************
.SUBCKT p18_CDNS_6737726599919 1 2 3
** N=3 EP=3 IP=0 FDC=1
M0 2 3 1 1 PM L=1.8e-07 W=1.76e-06 $X=0 $Y=0 $D=4
.ENDS
***************************************
.SUBCKT ICV_17 1 2 3 4
** N=4 EP=4 IP=6 FDC=2
X0 1 2 4 p18_CDNS_6737726599919 $T=0 0 0 0 $X=-910 $Y=-430
X1 1 3 2 p18_CDNS_6737726599919 $T=1940 0 0 0 $X=1030 $Y=-430
.ENDS
***************************************
.SUBCKT p18_CDNS_6737726599920 1 2 3
** N=3 EP=3 IP=0 FDC=1
M0 3 2 1 1 PM L=1.8e-07 W=8.8e-07 $X=0 $Y=0 $D=4
.ENDS
***************************************
.SUBCKT p18_CDNS_6737726599921 1 2 3 4
** N=4 EP=4 IP=0 FDC=1
M0 2 3 4 1 PM L=1.8e-07 W=8.8e-07 $X=0 $Y=0 $D=4
.ENDS
***************************************
.SUBCKT ICV_18 1 2 3 4
** N=5 EP=4 IP=7 FDC=2
X0 1 3 5 p18_CDNS_6737726599920 $T=0 0 0 0 $X=-910 $Y=-430
X1 1 2 4 5 p18_CDNS_6737726599921 $T=430 0 0 0 $X=-125 $Y=-430
.ENDS
***************************************
.SUBCKT n18_CDNS_6737726599917 1 2 3
** N=3 EP=3 IP=0 FDC=1
M0 2 3 1 1 NM L=1.8e-07 W=2.2e-07 $X=0 $Y=0 $D=0
.ENDS
***************************************
.SUBCKT n18_CDNS_6737726599922 1 2 3 4
** N=4 EP=4 IP=0 FDC=1
M0 2 3 4 1 NM L=1.8e-07 W=4.4e-07 $X=0 $Y=0 $D=0
.ENDS
***************************************
.SUBCKT n18_CDNS_6737726599924 1 2 3
** N=3 EP=3 IP=0 FDC=1
M0 3 2 1 1 NM L=1.8e-07 W=4.4e-07 $X=0 $Y=0 $D=0
.ENDS
***************************************
.SUBCKT p18_CDNS_6737726599918 1 2 3
** N=3 EP=3 IP=0 FDC=1
M0 2 3 1 1 PM L=1.8e-07 W=8.8e-07 $X=0 $Y=0 $D=4
.ENDS
***************************************
.SUBCKT ICV_19 1 2 3 4 5
** N=5 EP=5 IP=6 FDC=2
X0 1 2 4 n18_CDNS_6737726599917 $T=0 -1680 1 0 $X=-700 $Y=-2250
X1 1 3 5 n18_CDNS_6737726599917 $T=0 0 0 0 $X=-700 $Y=-1230
.ENDS
***************************************
.SUBCKT ICV_20 1 2 3 4 5 6 7 8 9
** N=9 EP=9 IP=10 FDC=4
X0 1 2 3 6 7 ICV_19 $T=0 0 0 0 $X=-700 $Y=-2250
X1 1 4 5 8 9 ICV_19 $T=2020 0 0 0 $X=1320 $Y=-2250
.ENDS
***************************************
.SUBCKT ICV_21 1 2 3 4 5
** N=5 EP=5 IP=8 FDC=2
X0 1 1 2 4 p18_CDNS_6737726599914 $T=0 0 0 0 $X=-910 $Y=-430
X1 1 1 3 5 p18_CDNS_6737726599914 $T=0 2360 1 0 $X=-910 $Y=790
.ENDS
***************************************
.SUBCKT ICV_22 1 2 3 4 5 6 7 8 9
** N=9 EP=9 IP=10 FDC=4
X0 1 2 3 6 7 ICV_21 $T=0 0 0 0 $X=-910 $Y=-430
X1 1 4 5 8 9 ICV_21 $T=2020 0 0 0 $X=1110 $Y=-430
.ENDS
***************************************
.SUBCKT ICV_23 1 2 3 4 5
** N=5 EP=5 IP=6 FDC=2
X0 1 2 4 p18_CDNS_6737726599918 $T=0 0 0 0 $X=-910 $Y=-430
X1 1 3 5 p18_CDNS_6737726599918 $T=0 3240 1 0 $X=-910 $Y=1230
.ENDS
***************************************
.SUBCKT ICV_24 1 2 3 4 5
** N=5 EP=5 IP=6 FDC=2
X0 1 2 4 n18_CDNS_673772659990 $T=0 -1480 1 0 $X=-660 $Y=-2710
X1 1 3 5 n18_CDNS_673772659990 $T=0 0 0 0 $X=-660 $Y=-1130
.ENDS
***************************************
.SUBCKT ICV_25 1 2 3 4 5 6 7
** N=7 EP=7 IP=10 FDC=4
X0 1 2 3 6 7 ICV_24 $T=0 0 0 0 $X=-660 $Y=-2710
X1 1 4 5 2 3 ICV_24 $T=1940 0 0 0 $X=1280 $Y=-2710
.ENDS
***************************************
.SUBCKT ICV_26 1 2 3 4 5 6 7
** N=7 EP=7 IP=8 FDC=4
X0 1 2 3 6 ICV_17 $T=0 0 0 0 $X=-910 $Y=-430
X1 1 4 5 7 ICV_17 $T=0 5000 1 0 $X=-910 $Y=2110
.ENDS
***************************************
.SUBCKT ICV_27 1 2 3 4 5 6
** N=6 EP=6 IP=8 FDC=4
X0 1 2 3 6 ICV_16 $T=0 0 0 0 $X=-660 $Y=-1130
X1 1 4 5 3 ICV_16 $T=3880 0 0 0 $X=3220 $Y=-1130
.ENDS
***************************************
.SUBCKT ICV_28 1 2 3 4 5 6 7 8 9 10
** N=10 EP=10 IP=12 FDC=8
X0 1 2 3 4 5 10 ICV_27 $T=0 0 0 0 $X=-660 $Y=-1130
X1 1 6 7 8 9 5 ICV_27 $T=7760 0 0 0 $X=7100 $Y=-1130
.ENDS
***************************************
.SUBCKT ICV_29 1 2 3 4 5 6
** N=7 EP=6 IP=8 FDC=4
X0 1 2 3 6 ICV_17 $T=0 0 0 0 $X=-910 $Y=-430
X1 1 4 5 3 ICV_17 $T=3880 0 0 0 $X=2970 $Y=-430
.ENDS
***************************************
.SUBCKT ICV_30 1 2 3 4 5 6 7 8 9 10
** N=11 EP=10 IP=14 FDC=8
X0 1 2 3 4 5 10 ICV_29 $T=0 0 0 0 $X=-910 $Y=-430
X1 1 6 7 8 9 5 ICV_29 $T=7760 0 0 0 $X=6850 $Y=-430
.ENDS
***************************************
.SUBCKT ICV_31 1 2 3 4 5 6 7 8 9 10 11
** N=11 EP=11 IP=14 FDC=8
X0 1 2 4 3 5 10 11 ICV_26 $T=0 0 0 0 $X=-910 $Y=-430
X1 1 6 8 7 9 4 5 ICV_26 $T=3880 0 0 0 $X=2970 $Y=-430
.ENDS
***************************************
.SUBCKT ICV_32 1 2 3 4 5
** N=6 EP=5 IP=10 FDC=3
X0 1 2 3 n18_CDNS_6737726599917 $T=0 0 0 0 $X=-700 $Y=-1230
X1 1 3 4 6 n18_CDNS_6737726599922 $T=-2230 -100 0 0 $X=-2550 $Y=-1230
X2 1 5 6 n18_CDNS_6737726599924 $T=-2660 -100 0 0 $X=-3320 $Y=-1230
.ENDS
***************************************
.SUBCKT p18_CDNS_673772659991 1 2 3
** N=3 EP=3 IP=0 FDC=1
M0 3 2 1 1 PM L=1.8e-07 W=1.32e-06 $X=0 $Y=0 $D=4
.ENDS
***************************************
.SUBCKT p18_CDNS_6737726599929 1 2 3 4
** N=4 EP=4 IP=0 FDC=1
M0 4 2 3 1 PM L=1.8e-07 W=1.32e-06 $X=0 $Y=0 $D=4
.ENDS
***************************************
.SUBCKT p18_CDNS_6737726599928 1 2 3 4
** N=4 EP=4 IP=0 FDC=1
M0 2 3 4 1 PM L=1.8e-07 W=1.32e-06 $X=0 $Y=0 $D=4
.ENDS
***************************************
.SUBCKT n18_CDNS_6737726599927 1 2 3 4
** N=4 EP=4 IP=0 FDC=1
M0 3 4 2 1 NM L=1.8e-07 W=2.2e-07 $X=0 $Y=0 $D=0
.ENDS
***************************************
.SUBCKT SRAM_8_16 A2 A1 A0 GND CLK MODE B0 INVB0 B1 INVB1 B2 INVB2 B3 INVB3 B4 INVB4 B5 INVB5 B6 INVB6
+ B7 INVB7 B8 INVB8 B9 INVB9 B10 INVB10 B11 INVB11 B12 INVB12 B13 INVB13 B14 INVB14 B15 INVB15 VDD CLKREG
+ ADD4 ADD3 SAEN ADD7 ADD6 ADD5 ADD2 ADD1 ADD0 O0 PCEN D0 O1 D1 O2 D2 O3 D3 O4 D4
+ O5 D5 O6 D6 O7 D7 O8 D8 O9 D9 O10 D10 O11 D11 O12 D12 O13 D13 O14 D14
+ O15 D15
** N=752 EP=82 IP=2653 FDC=1716
M0 GND A0 13 GND NM L=1.8e-07 W=2.2e-07 $X=-110655 $Y=-38680 $D=0
M1 GND 14 15 GND NM L=1.8e-07 W=2.2e-07 $X=-108935 $Y=-41920 $D=0
M2 15 13 GND GND NM L=1.8e-07 W=2.2e-07 $X=-108935 $Y=-41120 $D=0
M3 18 12 GND GND NM L=1.8e-07 W=2.2e-07 $X=-108935 $Y=-39100 $D=0
M4 GND 14 18 GND NM L=1.8e-07 W=2.2e-07 $X=-108935 $Y=-38300 $D=0
M5 GND A1 19 GND NM L=1.8e-07 W=2.2e-07 $X=-108935 $Y=-34680 $D=0
M6 GND A1 20 GND NM L=1.8e-07 W=2.2e-07 $X=-108935 $Y=-31060 $D=0
M7 GND 14 21 GND NM L=1.8e-07 W=2.2e-07 $X=-108935 $Y=-27440 $D=0
M8 GND 14 22 GND NM L=1.8e-07 W=2.2e-07 $X=-108935 $Y=-23820 $D=0
M9 GND A1 16 GND NM L=1.8e-07 W=2.2e-07 $X=-108935 $Y=-20200 $D=0
M10 GND A1 17 GND NM L=1.8e-07 W=2.2e-07 $X=-108935 $Y=-16580 $D=0
M11 194 25 GND GND NM L=1.8e-07 W=2.2e-07 $X=-95355 $Y=-1150 $D=0
M12 33 194 GND GND NM L=1.8e-07 W=2.2e-07 $X=-93335 $Y=-1150 $D=0
M13 198 196 GND GND NM L=1.8e-07 W=8.8e-07 $X=-92455 $Y=650 $D=0
M14 206 33 GND GND NM L=1.8e-07 W=8.8e-07 $X=-91355 $Y=-1710 $D=0
M15 216 206 GND GND NM L=1.8e-07 W=8.8e-07 $X=-89415 $Y=-1710 $D=0
M16 226 216 GND GND NM L=1.8e-07 W=8.8e-07 $X=-87475 $Y=-1710 $D=0
M17 236 226 GND GND NM L=1.8e-07 W=8.8e-07 $X=-85535 $Y=-1710 $D=0
M18 246 236 GND GND NM L=1.8e-07 W=8.8e-07 $X=-83595 $Y=-1710 $D=0
M19 257 246 GND GND NM L=1.8e-07 W=8.8e-07 $X=-81655 $Y=-1710 $D=0
M20 267 249 GND GND NM L=1.8e-07 W=8.8e-07 $X=-78875 $Y=650 $D=0
M21 276 33 708 GND NM L=1.8e-07 W=4.4e-07 $X=-77265 $Y=-1270 $D=0
M22 709 CLK GND GND NM L=1.8e-07 W=4.4e-07 $X=-74915 $Y=650 $D=0
M23 288 278 709 GND NM L=1.8e-07 W=4.4e-07 $X=-74485 $Y=650 $D=0
M24 290 280 710 GND NM L=1.8e-07 W=4.4e-07 $X=-72625 $Y=-60310 $D=0
M25 297 287 711 GND NM L=1.8e-07 W=4.4e-07 $X=-72625 $Y=-1270 $D=0
M26 298 290 GND GND NM L=1.8e-07 W=2.2e-07 $X=-70395 $Y=-60210 $D=0
M27 305 297 GND GND NM L=1.8e-07 W=2.2e-07 $X=-70395 $Y=-1150 $D=0
M28 40 298 GND GND NM L=1.8e-07 W=2.2e-07 $X=-68375 $Y=-60210 $D=0
M29 47 305 GND GND NM L=1.8e-07 W=2.2e-07 $X=-68375 $Y=-1150 $D=0
M30 50 1 GND GND NM L=1.8e-07 W=2.2e-07 $X=-66355 $Y=-60210 $D=0
M31 59 MODE 25 GND NM L=1.8e-07 W=4.4e-07 $X=-66235 $Y=650 $D=0
M32 24 36 58 GND NM L=1.8e-07 W=4.4e-07 $X=-65515 $Y=-62230 $D=0
M33 25 37 59 GND NM L=1.8e-07 W=4.4e-07 $X=-65515 $Y=650 $D=0
M34 58 38 GND GND NM L=1.8e-07 W=4.4e-07 $X=-63575 $Y=-62230 $D=0
M35 59 39 GND GND NM L=1.8e-07 W=4.4e-07 $X=-63575 $Y=650 $D=0
M36 GND 48 58 GND NM L=1.8e-07 W=4.4e-07 $X=-62855 $Y=-62230 $D=0
M37 GND 49 59 GND NM L=1.8e-07 W=4.4e-07 $X=-62855 $Y=650 $D=0
M38 ADD7 40 69 GND NM L=1.8e-07 W=4.4e-07 $X=-61635 $Y=-60310 $D=0
M39 ADD6 41 70 GND NM L=1.8e-07 W=4.4e-07 $X=-61635 $Y=-46990 $D=0
M40 ADD5 42 71 GND NM L=1.8e-07 W=4.4e-07 $X=-61635 $Y=-45070 $D=0
M41 ADD4 43 72 GND NM L=1.8e-07 W=4.4e-07 $X=-61635 $Y=-31750 $D=0
M42 ADD3 44 73 GND NM L=1.8e-07 W=4.4e-07 $X=-61635 $Y=-29830 $D=0
M43 ADD2 45 74 GND NM L=1.8e-07 W=4.4e-07 $X=-61635 $Y=-16510 $D=0
M44 ADD1 46 75 GND NM L=1.8e-07 W=4.4e-07 $X=-61635 $Y=-14590 $D=0
M45 ADD0 47 76 GND NM L=1.8e-07 W=4.4e-07 $X=-61635 $Y=-1270 $D=0
M46 76 57 GND GND NM L=1.8e-07 W=4.4e-07 $X=-59695 $Y=-1270 $D=0
M47 SAEN 311 GND GND NM L=1.8e-07 W=8.8e-07 $X=-58975 $Y=-62670 $D=0
M48 GND 61 69 GND NM L=1.8e-07 W=4.4e-07 $X=-58975 $Y=-60310 $D=0
M49 GND 62 70 GND NM L=1.8e-07 W=4.4e-07 $X=-58975 $Y=-46990 $D=0
M50 GND 63 71 GND NM L=1.8e-07 W=4.4e-07 $X=-58975 $Y=-45070 $D=0
M51 GND 64 72 GND NM L=1.8e-07 W=4.4e-07 $X=-58975 $Y=-31750 $D=0
M52 GND 65 73 GND NM L=1.8e-07 W=4.4e-07 $X=-58975 $Y=-29830 $D=0
M53 GND 66 74 GND NM L=1.8e-07 W=4.4e-07 $X=-58975 $Y=-16510 $D=0
M54 GND 67 75 GND NM L=1.8e-07 W=4.4e-07 $X=-58975 $Y=-14590 $D=0
M55 GND 68 76 GND NM L=1.8e-07 W=4.4e-07 $X=-58975 $Y=-1270 $D=0
M56 GND D0 78 GND NM L=1.8e-07 W=2.2e-07 $X=-54645 $Y=-67380 $D=0
M57 336 B0 326 GND NM L=1.8e-07 W=4.4e-07 $X=-54605 $Y=-58800 $D=0
M58 81 78 GND GND NM L=1.8e-07 W=2.2e-07 $X=-53845 $Y=-67380 $D=0
M59 GND D1 82 GND NM L=1.8e-07 W=2.2e-07 $X=-50185 $Y=-67380 $D=0
M60 360 B1 350 GND NM L=1.8e-07 W=4.4e-07 $X=-50145 $Y=-58800 $D=0
M61 85 82 GND GND NM L=1.8e-07 W=2.2e-07 $X=-49385 $Y=-67380 $D=0
M62 GND D2 86 GND NM L=1.8e-07 W=2.2e-07 $X=-45725 $Y=-67380 $D=0
M63 384 B2 374 GND NM L=1.8e-07 W=4.4e-07 $X=-45685 $Y=-58800 $D=0
M64 89 86 GND GND NM L=1.8e-07 W=2.2e-07 $X=-44925 $Y=-67380 $D=0
M65 GND D3 90 GND NM L=1.8e-07 W=2.2e-07 $X=-41265 $Y=-67380 $D=0
M66 408 B3 398 GND NM L=1.8e-07 W=4.4e-07 $X=-41225 $Y=-58800 $D=0
M67 93 90 GND GND NM L=1.8e-07 W=2.2e-07 $X=-40465 $Y=-67380 $D=0
M68 GND D4 94 GND NM L=1.8e-07 W=2.2e-07 $X=-36805 $Y=-67380 $D=0
M69 432 B4 422 GND NM L=1.8e-07 W=4.4e-07 $X=-36765 $Y=-58800 $D=0
M70 97 94 GND GND NM L=1.8e-07 W=2.2e-07 $X=-36005 $Y=-67380 $D=0
M71 GND D5 98 GND NM L=1.8e-07 W=2.2e-07 $X=-32345 $Y=-67380 $D=0
M72 456 B5 446 GND NM L=1.8e-07 W=4.4e-07 $X=-32305 $Y=-58800 $D=0
M73 101 98 GND GND NM L=1.8e-07 W=2.2e-07 $X=-31545 $Y=-67380 $D=0
M74 GND D6 102 GND NM L=1.8e-07 W=2.2e-07 $X=-27885 $Y=-67380 $D=0
M75 480 B6 470 GND NM L=1.8e-07 W=4.4e-07 $X=-27845 $Y=-58800 $D=0
M76 105 102 GND GND NM L=1.8e-07 W=2.2e-07 $X=-27085 $Y=-67380 $D=0
M77 GND D7 106 GND NM L=1.8e-07 W=2.2e-07 $X=-23425 $Y=-67380 $D=0
M78 504 B7 494 GND NM L=1.8e-07 W=4.4e-07 $X=-23385 $Y=-58800 $D=0
M79 109 106 GND GND NM L=1.8e-07 W=2.2e-07 $X=-22625 $Y=-67380 $D=0
M80 GND D8 110 GND NM L=1.8e-07 W=2.2e-07 $X=-18965 $Y=-67380 $D=0
M81 528 B8 518 GND NM L=1.8e-07 W=4.4e-07 $X=-18925 $Y=-58800 $D=0
M82 113 110 GND GND NM L=1.8e-07 W=2.2e-07 $X=-18165 $Y=-67380 $D=0
M83 GND D9 114 GND NM L=1.8e-07 W=2.2e-07 $X=-14505 $Y=-67380 $D=0
M84 552 B9 542 GND NM L=1.8e-07 W=4.4e-07 $X=-14465 $Y=-58800 $D=0
M85 117 114 GND GND NM L=1.8e-07 W=2.2e-07 $X=-13705 $Y=-67380 $D=0
M86 GND D10 118 GND NM L=1.8e-07 W=2.2e-07 $X=-10045 $Y=-67380 $D=0
M87 576 B10 566 GND NM L=1.8e-07 W=4.4e-07 $X=-10005 $Y=-58800 $D=0
M88 121 118 GND GND NM L=1.8e-07 W=2.2e-07 $X=-9245 $Y=-67380 $D=0
M89 GND D11 122 GND NM L=1.8e-07 W=2.2e-07 $X=-5585 $Y=-67380 $D=0
M90 600 B11 590 GND NM L=1.8e-07 W=4.4e-07 $X=-5545 $Y=-58800 $D=0
M91 125 122 GND GND NM L=1.8e-07 W=2.2e-07 $X=-4785 $Y=-67380 $D=0
M92 GND D12 126 GND NM L=1.8e-07 W=2.2e-07 $X=-1125 $Y=-67380 $D=0
M93 624 B12 614 GND NM L=1.8e-07 W=4.4e-07 $X=-1085 $Y=-58800 $D=0
M94 129 126 GND GND NM L=1.8e-07 W=2.2e-07 $X=-325 $Y=-67380 $D=0
M95 GND D13 130 GND NM L=1.8e-07 W=2.2e-07 $X=3335 $Y=-67380 $D=0
M96 648 B13 638 GND NM L=1.8e-07 W=4.4e-07 $X=3375 $Y=-58800 $D=0
M97 133 130 GND GND NM L=1.8e-07 W=2.2e-07 $X=4135 $Y=-67380 $D=0
M98 GND D14 134 GND NM L=1.8e-07 W=2.2e-07 $X=7795 $Y=-67380 $D=0
M99 672 B14 662 GND NM L=1.8e-07 W=4.4e-07 $X=7835 $Y=-58800 $D=0
M100 137 134 GND GND NM L=1.8e-07 W=2.2e-07 $X=8595 $Y=-67380 $D=0
M101 GND D15 138 GND NM L=1.8e-07 W=2.2e-07 $X=12255 $Y=-67380 $D=0
M102 696 B15 686 GND NM L=1.8e-07 W=4.4e-07 $X=12295 $Y=-58800 $D=0
M103 141 138 GND GND NM L=1.8e-07 W=2.2e-07 $X=13055 $Y=-67380 $D=0
M104 726 12 15 VDD PM L=1.8e-07 W=1.32e-06 $X=-106765 $Y=-41980 $D=4
M105 VDD 13 727 VDD PM L=1.8e-07 W=1.32e-06 $X=-106765 $Y=-41120 $D=4
M106 728 12 18 VDD PM L=1.8e-07 W=1.32e-06 $X=-106765 $Y=-38360 $D=4
M107 729 14 728 VDD PM L=1.8e-07 W=1.32e-06 $X=-106765 $Y=-37930 $D=4
M108 VDD A0 729 VDD PM L=1.8e-07 W=1.32e-06 $X=-106765 $Y=-37500 $D=4
M109 730 12 19 VDD PM L=1.8e-07 W=1.32e-06 $X=-106765 $Y=-34740 $D=4
M110 731 A1 730 VDD PM L=1.8e-07 W=1.32e-06 $X=-106765 $Y=-34310 $D=4
M111 VDD 13 731 VDD PM L=1.8e-07 W=1.32e-06 $X=-106765 $Y=-33880 $D=4
M112 VDD A0 732 VDD PM L=1.8e-07 W=1.32e-06 $X=-106765 $Y=-30260 $D=4
M113 734 A1 733 VDD PM L=1.8e-07 W=1.32e-06 $X=-106765 $Y=-19830 $D=4
M114 176 15 VDD VDD PM L=1.8e-07 W=8.8e-07 $X=-103965 $Y=-48980 $D=4
M115 177 18 VDD VDD PM L=1.8e-07 W=8.8e-07 $X=-103965 $Y=-44340 $D=4
M116 178 19 VDD VDD PM L=1.8e-07 W=8.8e-07 $X=-103965 $Y=-39700 $D=4
M117 179 20 VDD VDD PM L=1.8e-07 W=8.8e-07 $X=-103965 $Y=-35060 $D=4
M118 180 21 VDD VDD PM L=1.8e-07 W=8.8e-07 $X=-103965 $Y=-30420 $D=4
M119 VDD 181 4 VDD PM L=1.8e-07 W=4.4e-07 $X=-103965 $Y=-27720 $D=4
M120 181 22 VDD VDD PM L=1.8e-07 W=8.8e-07 $X=-103965 $Y=-25780 $D=4
M121 VDD 182 3 VDD PM L=1.8e-07 W=4.4e-07 $X=-103965 $Y=-23080 $D=4
M122 182 16 VDD VDD PM L=1.8e-07 W=8.8e-07 $X=-103965 $Y=-21140 $D=4
M123 VDD CLK 182 VDD PM L=1.8e-07 W=8.8e-07 $X=-103965 $Y=-20420 $D=4
M124 183 17 VDD VDD PM L=1.8e-07 W=8.8e-07 $X=-103965 $Y=-16500 $D=4
M125 VDD CLK 183 VDD PM L=1.8e-07 W=8.8e-07 $X=-103965 $Y=-15780 $D=4
M126 VDD 26 269 VDD PM L=1.8e-07 W=8.8e-07 $X=-76975 $Y=-55050 $D=4
M127 VDD 27 270 VDD PM L=1.8e-07 W=8.8e-07 $X=-76975 $Y=-52690 $D=4
M128 VDD 28 271 VDD PM L=1.8e-07 W=8.8e-07 $X=-76975 $Y=-39810 $D=4
M129 VDD 29 272 VDD PM L=1.8e-07 W=8.8e-07 $X=-76975 $Y=-37450 $D=4
M130 VDD 30 273 VDD PM L=1.8e-07 W=8.8e-07 $X=-76975 $Y=-24570 $D=4
M131 VDD 31 274 VDD PM L=1.8e-07 W=8.8e-07 $X=-76975 $Y=-22210 $D=4
M132 VDD 32 275 VDD PM L=1.8e-07 W=8.8e-07 $X=-76975 $Y=-9330 $D=4
M133 VDD 33 276 VDD PM L=1.8e-07 W=8.8e-07 $X=-76975 $Y=-6970 $D=4
M134 VDD 278 288 VDD PM L=1.8e-07 W=8.8e-07 $X=-74195 $Y=5910 $D=4
M135 VDD 280 290 VDD PM L=1.8e-07 W=8.8e-07 $X=-72335 $Y=-55050 $D=4
M136 VDD 281 291 VDD PM L=1.8e-07 W=8.8e-07 $X=-72335 $Y=-52690 $D=4
M137 VDD 282 292 VDD PM L=1.8e-07 W=8.8e-07 $X=-72335 $Y=-39810 $D=4
M138 VDD 283 293 VDD PM L=1.8e-07 W=8.8e-07 $X=-72335 $Y=-37450 $D=4
M139 VDD 284 294 VDD PM L=1.8e-07 W=8.8e-07 $X=-72335 $Y=-24570 $D=4
M140 VDD 285 295 VDD PM L=1.8e-07 W=8.8e-07 $X=-72335 $Y=-22210 $D=4
M141 VDD 286 296 VDD PM L=1.8e-07 W=8.8e-07 $X=-72335 $Y=-9330 $D=4
M142 VDD 287 297 VDD PM L=1.8e-07 W=8.8e-07 $X=-72335 $Y=-6970 $D=4
M143 289 279 VDD VDD PM L=1.8e-07 W=1.76e-06 $X=-71455 $Y=-71170 $D=4
M144 38 GND VDD VDD PM L=1.8e-07 W=4.4e-07 $X=-70235 $Y=-67930 $D=4
M145 307 306 VDD VDD PM L=1.8e-07 W=4.4e-07 $X=-67535 $Y=-69850 $D=4
M146 24 36 735 VDD PM L=1.8e-07 W=8.8e-07 $X=-65805 $Y=-67930 $D=4
M147 736 38 24 VDD PM L=1.8e-07 W=8.8e-07 $X=-65085 $Y=-67930 $D=4
M148 737 39 25 VDD PM L=1.8e-07 W=8.8e-07 $X=-65085 $Y=5910 $D=4
M149 VDD 307 308 VDD PM L=1.8e-07 W=8.8e-07 $X=-64835 $Y=-70290 $D=4
M150 VDD 48 736 VDD PM L=1.8e-07 W=8.8e-07 $X=-64655 $Y=-67930 $D=4
M151 VDD 49 737 VDD PM L=1.8e-07 W=8.8e-07 $X=-64655 $Y=5910 $D=4
M152 738 50 ADD7 VDD PM L=1.8e-07 W=8.8e-07 $X=-61205 $Y=-55050 $D=4
M153 739 51 ADD6 VDD PM L=1.8e-07 W=8.8e-07 $X=-61205 $Y=-52690 $D=4
M154 740 52 ADD5 VDD PM L=1.8e-07 W=8.8e-07 $X=-61205 $Y=-39810 $D=4
M155 741 53 ADD4 VDD PM L=1.8e-07 W=8.8e-07 $X=-61205 $Y=-37450 $D=4
M156 742 54 ADD3 VDD PM L=1.8e-07 W=8.8e-07 $X=-61205 $Y=-24570 $D=4
M157 743 55 ADD2 VDD PM L=1.8e-07 W=8.8e-07 $X=-61205 $Y=-22210 $D=4
M158 744 56 ADD1 VDD PM L=1.8e-07 W=8.8e-07 $X=-61205 $Y=-9330 $D=4
M159 745 57 ADD0 VDD PM L=1.8e-07 W=8.8e-07 $X=-61205 $Y=-6970 $D=4
M160 VDD 61 738 VDD PM L=1.8e-07 W=8.8e-07 $X=-60775 $Y=-55050 $D=4
M161 VDD 62 739 VDD PM L=1.8e-07 W=8.8e-07 $X=-60775 $Y=-52690 $D=4
M162 VDD 63 740 VDD PM L=1.8e-07 W=8.8e-07 $X=-60775 $Y=-39810 $D=4
M163 VDD 64 741 VDD PM L=1.8e-07 W=8.8e-07 $X=-60775 $Y=-37450 $D=4
M164 VDD 65 742 VDD PM L=1.8e-07 W=8.8e-07 $X=-60775 $Y=-24570 $D=4
M165 VDD 66 743 VDD PM L=1.8e-07 W=8.8e-07 $X=-60775 $Y=-22210 $D=4
M166 VDD 67 744 VDD PM L=1.8e-07 W=8.8e-07 $X=-60775 $Y=-9330 $D=4
M167 VDD 68 745 VDD PM L=1.8e-07 W=8.8e-07 $X=-60775 $Y=-6970 $D=4
M168 VDD D0 78 VDD PM L=1.8e-07 W=4.4e-07 $X=-54605 $Y=-65670 $D=4
M169 VDD 326 326 VDD PM L=1.8e-07 W=3.3e-06 $X=-54605 $Y=-56390 $D=4
M170 81 78 VDD VDD PM L=1.8e-07 W=4.4e-07 $X=-53885 $Y=-65670 $D=4
M171 VDD D1 82 VDD PM L=1.8e-07 W=4.4e-07 $X=-50145 $Y=-65670 $D=4
M172 VDD 350 350 VDD PM L=1.8e-07 W=3.3e-06 $X=-50145 $Y=-56390 $D=4
M173 85 82 VDD VDD PM L=1.8e-07 W=4.4e-07 $X=-49425 $Y=-65670 $D=4
M174 VDD D2 86 VDD PM L=1.8e-07 W=4.4e-07 $X=-45685 $Y=-65670 $D=4
M175 VDD 374 374 VDD PM L=1.8e-07 W=3.3e-06 $X=-45685 $Y=-56390 $D=4
M176 89 86 VDD VDD PM L=1.8e-07 W=4.4e-07 $X=-44965 $Y=-65670 $D=4
M177 VDD D3 90 VDD PM L=1.8e-07 W=4.4e-07 $X=-41225 $Y=-65670 $D=4
M178 VDD 398 398 VDD PM L=1.8e-07 W=3.3e-06 $X=-41225 $Y=-56390 $D=4
M179 93 90 VDD VDD PM L=1.8e-07 W=4.4e-07 $X=-40505 $Y=-65670 $D=4
M180 VDD D4 94 VDD PM L=1.8e-07 W=4.4e-07 $X=-36765 $Y=-65670 $D=4
M181 VDD 422 422 VDD PM L=1.8e-07 W=3.3e-06 $X=-36765 $Y=-56390 $D=4
M182 97 94 VDD VDD PM L=1.8e-07 W=4.4e-07 $X=-36045 $Y=-65670 $D=4
M183 VDD D5 98 VDD PM L=1.8e-07 W=4.4e-07 $X=-32305 $Y=-65670 $D=4
M184 VDD 446 446 VDD PM L=1.8e-07 W=3.3e-06 $X=-32305 $Y=-56390 $D=4
M185 101 98 VDD VDD PM L=1.8e-07 W=4.4e-07 $X=-31585 $Y=-65670 $D=4
M186 VDD D6 102 VDD PM L=1.8e-07 W=4.4e-07 $X=-27845 $Y=-65670 $D=4
M187 VDD 470 470 VDD PM L=1.8e-07 W=3.3e-06 $X=-27845 $Y=-56390 $D=4
M188 105 102 VDD VDD PM L=1.8e-07 W=4.4e-07 $X=-27125 $Y=-65670 $D=4
M189 VDD D7 106 VDD PM L=1.8e-07 W=4.4e-07 $X=-23385 $Y=-65670 $D=4
M190 VDD 494 494 VDD PM L=1.8e-07 W=3.3e-06 $X=-23385 $Y=-56390 $D=4
M191 109 106 VDD VDD PM L=1.8e-07 W=4.4e-07 $X=-22665 $Y=-65670 $D=4
M192 VDD D8 110 VDD PM L=1.8e-07 W=4.4e-07 $X=-18925 $Y=-65670 $D=4
M193 VDD 518 518 VDD PM L=1.8e-07 W=3.3e-06 $X=-18925 $Y=-56390 $D=4
M194 113 110 VDD VDD PM L=1.8e-07 W=4.4e-07 $X=-18205 $Y=-65670 $D=4
M195 VDD D9 114 VDD PM L=1.8e-07 W=4.4e-07 $X=-14465 $Y=-65670 $D=4
M196 VDD 542 542 VDD PM L=1.8e-07 W=3.3e-06 $X=-14465 $Y=-56390 $D=4
M197 117 114 VDD VDD PM L=1.8e-07 W=4.4e-07 $X=-13745 $Y=-65670 $D=4
M198 VDD D10 118 VDD PM L=1.8e-07 W=4.4e-07 $X=-10005 $Y=-65670 $D=4
M199 VDD 566 566 VDD PM L=1.8e-07 W=3.3e-06 $X=-10005 $Y=-56390 $D=4
M200 121 118 VDD VDD PM L=1.8e-07 W=4.4e-07 $X=-9285 $Y=-65670 $D=4
M201 VDD D11 122 VDD PM L=1.8e-07 W=4.4e-07 $X=-5545 $Y=-65670 $D=4
M202 VDD 590 590 VDD PM L=1.8e-07 W=3.3e-06 $X=-5545 $Y=-56390 $D=4
M203 125 122 VDD VDD PM L=1.8e-07 W=4.4e-07 $X=-4825 $Y=-65670 $D=4
M204 VDD D12 126 VDD PM L=1.8e-07 W=4.4e-07 $X=-1085 $Y=-65670 $D=4
M205 VDD 614 614 VDD PM L=1.8e-07 W=3.3e-06 $X=-1085 $Y=-56390 $D=4
M206 129 126 VDD VDD PM L=1.8e-07 W=4.4e-07 $X=-365 $Y=-65670 $D=4
M207 VDD D13 130 VDD PM L=1.8e-07 W=4.4e-07 $X=3375 $Y=-65670 $D=4
M208 VDD 638 638 VDD PM L=1.8e-07 W=3.3e-06 $X=3375 $Y=-56390 $D=4
M209 133 130 VDD VDD PM L=1.8e-07 W=4.4e-07 $X=4095 $Y=-65670 $D=4
M210 VDD D14 134 VDD PM L=1.8e-07 W=4.4e-07 $X=7835 $Y=-65670 $D=4
M211 VDD 662 662 VDD PM L=1.8e-07 W=3.3e-06 $X=7835 $Y=-56390 $D=4
M212 137 134 VDD VDD PM L=1.8e-07 W=4.4e-07 $X=8555 $Y=-65670 $D=4
M213 VDD D15 138 VDD PM L=1.8e-07 W=4.4e-07 $X=12295 $Y=-65670 $D=4
M214 VDD 686 686 VDD PM L=1.8e-07 W=3.3e-06 $X=12295 $Y=-56390 $D=4
M215 141 138 VDD VDD PM L=1.8e-07 W=4.4e-07 $X=13015 $Y=-65670 $D=4
X216 GND 346 336 INVB0 n18_CDNS_673772659997 $T=-53705 -58800 1 180 $X=-54545 $Y=-59150
X217 GND 370 360 INVB1 n18_CDNS_673772659997 $T=-49245 -58800 1 180 $X=-50085 $Y=-59150
X218 GND 394 384 INVB2 n18_CDNS_673772659997 $T=-44785 -58800 1 180 $X=-45625 $Y=-59150
X219 GND 418 408 INVB3 n18_CDNS_673772659997 $T=-40325 -58800 1 180 $X=-41165 $Y=-59150
X220 GND 442 432 INVB4 n18_CDNS_673772659997 $T=-35865 -58800 1 180 $X=-36705 $Y=-59150
X221 GND 466 456 INVB5 n18_CDNS_673772659997 $T=-31405 -58800 1 180 $X=-32245 $Y=-59150
X222 GND 490 480 INVB6 n18_CDNS_673772659997 $T=-26945 -58800 1 180 $X=-27785 $Y=-59150
X223 GND 514 504 INVB7 n18_CDNS_673772659997 $T=-22485 -58800 1 180 $X=-23325 $Y=-59150
X224 GND 538 528 INVB8 n18_CDNS_673772659997 $T=-18025 -58800 1 180 $X=-18865 $Y=-59150
X225 GND 562 552 INVB9 n18_CDNS_673772659997 $T=-13565 -58800 1 180 $X=-14405 $Y=-59150
X226 GND 586 576 INVB10 n18_CDNS_673772659997 $T=-9105 -58800 1 180 $X=-9945 $Y=-59150
X227 GND 610 600 INVB11 n18_CDNS_673772659997 $T=-4645 -58800 1 180 $X=-5485 $Y=-59150
X228 GND 634 624 INVB12 n18_CDNS_673772659997 $T=-185 -58800 1 180 $X=-1025 $Y=-59150
X229 GND 658 648 INVB13 n18_CDNS_673772659997 $T=4275 -58800 1 180 $X=3435 $Y=-59150
X230 GND 682 672 INVB14 n18_CDNS_673772659997 $T=8735 -58800 1 180 $X=7895 $Y=-59150
X231 GND 706 696 INVB15 n18_CDNS_673772659997 $T=13195 -58800 1 180 $X=12355 $Y=-59150
X232 VDD 346 326 p18_CDNS_6737726599915 $T=-53705 -56390 1 180 $X=-54795 $Y=-56820
X233 VDD 370 350 p18_CDNS_6737726599915 $T=-49245 -56390 1 180 $X=-50335 $Y=-56820
X234 VDD 394 374 p18_CDNS_6737726599915 $T=-44785 -56390 1 180 $X=-45875 $Y=-56820
X235 VDD 418 398 p18_CDNS_6737726599915 $T=-40325 -56390 1 180 $X=-41415 $Y=-56820
X236 VDD 442 422 p18_CDNS_6737726599915 $T=-35865 -56390 1 180 $X=-36955 $Y=-56820
X237 VDD 466 446 p18_CDNS_6737726599915 $T=-31405 -56390 1 180 $X=-32495 $Y=-56820
X238 VDD 490 470 p18_CDNS_6737726599915 $T=-26945 -56390 1 180 $X=-28035 $Y=-56820
X239 VDD 514 494 p18_CDNS_6737726599915 $T=-22485 -56390 1 180 $X=-23575 $Y=-56820
X240 VDD 538 518 p18_CDNS_6737726599915 $T=-18025 -56390 1 180 $X=-19115 $Y=-56820
X241 VDD 562 542 p18_CDNS_6737726599915 $T=-13565 -56390 1 180 $X=-14655 $Y=-56820
X242 VDD 586 566 p18_CDNS_6737726599915 $T=-9105 -56390 1 180 $X=-10195 $Y=-56820
X243 VDD 610 590 p18_CDNS_6737726599915 $T=-4645 -56390 1 180 $X=-5735 $Y=-56820
X244 VDD 634 614 p18_CDNS_6737726599915 $T=-185 -56390 1 180 $X=-1275 $Y=-56820
X245 VDD 658 638 p18_CDNS_6737726599915 $T=4275 -56390 1 180 $X=3185 $Y=-56820
X246 VDD 682 662 p18_CDNS_6737726599915 $T=8735 -56390 1 180 $X=7645 $Y=-56820
X247 VDD 706 686 p18_CDNS_6737726599915 $T=13195 -56390 1 180 $X=12105 $Y=-56820
X248 B0 INVB0 PCEN VDD p18_CDNS_6737726599916 $T=-54375 -2720 0 270 $X=-54805 $Y=-3810
X249 B1 INVB1 PCEN VDD p18_CDNS_6737726599916 $T=-49915 -2720 0 270 $X=-50345 $Y=-3810
X250 B2 INVB2 PCEN VDD p18_CDNS_6737726599916 $T=-45455 -2720 0 270 $X=-45885 $Y=-3810